12422527
  -OEChem-12051909403D

 16 17  0     0  0  0  0  0  0999 V2000
   -2.2287    2.3568   -0.0004 Br  0  0  0  0  0  0  0  0  0  0  0  0
   -0.3737   -1.9321    0.0000 N   0  0  0  0  0  0  0  0  0  0  0  0
    1.7885   -1.1203   -0.0001 N   0  0  0  0  0  0  0  0  0  0  0  0
   -0.0252    0.4252    0.0001 C   0  0  0  0  0  0  0  0  0  0  0  0
    0.4688   -0.8909   -0.0001 C   0  0  0  0  0  0  0  0  0  0  0  0
   -1.4115    0.6350    0.0002 C   0  0  0  0  0  0  0  0  0  0  0  0
    0.8805    1.4955    0.0002 C   0  0  0  0  0  0  0  0  0  0  0  0
   -2.2751   -0.4468    0.0002 C   0  0  0  0  0  0  0  0  0  0  0  0
    2.2427    1.2492    0.0001 C   0  0  0  0  0  0  0  0  0  0  0  0
   -1.7079   -1.7023    0.0000 C   0  0  0  0  0  0  0  0  0  0  0  0
    2.6418   -0.0693   -0.0001 C   0  0  0  0  0  0  0  0  0  0  0  0
    0.5619    2.5331    0.0003 H   0  0  0  0  0  0  0  0  0  0  0  0
   -3.3537   -0.3349    0.0001 H   0  0  0  0  0  0  0  0  0  0  0  0
    2.9630    2.0582    0.0002 H   0  0  0  0  0  0  0  0  0  0  0  0
   -2.3270   -2.5934   -0.0001 H   0  0  0  0  0  0  0  0  0  0  0  0
    3.6944   -0.3327   -0.0002 H   0  0  0  0  0  0  0  0  0  0  0  0
  1  6  1  0  0  0  0
  2  5  2  0  0  0  0
  2 10  1  0  0  0  0
  3  5  1  0  0  0  0
  3 11  2  0  0  0  0
  4  5  1  0  0  0  0
  4  6  2  0  0  0  0
  4  7  1  0  0  0  0
  6  8  1  0  0  0  0
  7  9  2  0  0  0  0
  7 12  1  0  0  0  0
  8 10  2  0  0  0  0
  8 13  1  0  0  0  0
  9 11  1  0  0  0  0
  9 14  1  0  0  0  0
 10 15  1  0  0  0  0
 11 16  1  0  0  0  0
M  END
> <PUBCHEM_COMPOUND_CID>
12422527

> <PUBCHEM_CONFORMER_RMSD>
0.4

> <PUBCHEM_CONFORMER_DIVERSEORDER>
1

> <PUBCHEM_MMFF94_PARTIAL_CHARGES>
15
1 -0.11
10 0.16
11 0.16
12 0.15
13 0.15
14 0.15
15 0.15
16 0.15
2 -0.62
3 -0.62
5 0.62
6 0.11
7 -0.15
8 -0.15
9 -0.15

> <PUBCHEM_EFFECTIVE_ROTOR_COUNT>
0

> <PUBCHEM_PHARMACOPHORE_FEATURES>
5
1 1 hydrophobe
1 3 acceptor
3 2 3 5 cation
6 2 4 5 6 8 10 rings
6 3 4 5 7 9 11 rings

> <PUBCHEM_HEAVY_ATOM_COUNT>
11

> <PUBCHEM_ATOM_DEF_STEREO_COUNT>
0

> <PUBCHEM_ATOM_UDEF_STEREO_COUNT>
0

> <PUBCHEM_BOND_DEF_STEREO_COUNT>
0

> <PUBCHEM_BOND_UDEF_STEREO_COUNT>
0

> <PUBCHEM_ISOTOPIC_ATOM_COUNT>
0

> <PUBCHEM_COMPONENT_COUNT>
1

> <PUBCHEM_CACTVS_TAUTO_COUNT>
1

> <PUBCHEM_CONFORMER_ID>
00BD8D7F00000001

> <PUBCHEM_MMFF94_ENERGY>
34.9291

> <PUBCHEM_FEATURE_SELFOVERLAP>
25.408

> <PUBCHEM_SHAPE_FINGERPRINT>
11206711 2 18410857689263798093
12897270 3 18266740370878771372
13380535 76 18266453209703042293
16945 1 18338516455585537894
18185500 45 17834677475628946063
193761 8 18338797793234350695
19973954 147 18410294743658117132
21040471 1 18410856525438488640
21501502 16 18410009927159920428
2334 1 18410575046029576197
23552423 10 18116995683469246830
23559900 14 18127137377831457878
241688 4 18050848020201776081
2748010 2 18339083666104312477
5084963 1 18202284727183925936
528886 8 18194678172636123016
66348 1 18410009927154652165

> <PUBCHEM_SHAPE_MULTIPOLES>
222.36
3.58
2.37
0.62
0.54
0.11
0
1.1
0
-1.14
0
-0.04
0.05
0

> <PUBCHEM_SHAPE_SELFOVERLAP>
474.096

> <PUBCHEM_SHAPE_VOLUME>
127.1

> <PUBCHEM_COORDINATE_TYPE>
2
5
10

$$$$
16640642
  -OEChem-12051909403D

 16 16  0     0  0  0  0  0  0999 V2000
    3.5247    0.4982   -0.6114 Br  0  0  0  0  0  0  0  0  0  0  0  0
   -2.7115   -0.5964   -0.9778 O   0  0  0  0  0  0  0  0  0  0  0  0
   -0.3225    0.1465    0.4862 N   0  0  0  0  0  0  0  0  0  0  0  0
   -0.0333   -1.1660    0.4809 N   0  0  0  0  0  0  0  0  0  0  0  0
   -1.6526    0.5859    0.8334 C   0  0  0  0  0  0  0  0  0  0  0  0
   -2.5692    0.6852   -0.3786 C   0  0  0  0  0  0  0  0  0  0  0  0
    0.7302    0.9441    0.1451 C   0  0  0  0  0  0  0  0  0  0  0  0
    1.7811    0.0943   -0.0999 C   0  0  0  0  0  0  0  0  0  0  0  0
    1.2531   -1.1916    0.1221 C   0  0  0  0  0  0  0  0  0  0  0  0
   -2.0511   -0.1316    1.5604 H   0  0  0  0  0  0  0  0  0  0  0  0
   -1.5661    1.5587    1.3294 H   0  0  0  0  0  0  0  0  0  0  0  0
   -3.5593    1.0385   -0.0750 H   0  0  0  0  0  0  0  0  0  0  0  0
   -2.1608    1.3727   -1.1266 H   0  0  0  0  0  0  0  0  0  0  0  0
    0.6442    2.0216    0.1056 H   0  0  0  0  0  0  0  0  0  0  0  0
    1.7474   -2.1494    0.0388 H   0  0  0  0  0  0  0  0  0  0  0  0
   -3.3044   -0.4898   -1.7411 H   0  0  0  0  0  0  0  0  0  0  0  0
  1  8  1  0  0  0  0
  2  6  1  0  0  0  0
  2 16  1  0  0  0  0
  3  4  1  0  0  0  0
  3  5  1  0  0  0  0
  3  7  1  0  0  0  0
  4  9  2  0  0  0  0
  5  6  1  0  0  0  0
  5 10  1  0  0  0  0
  5 11  1  0  0  0  0
  6 12  1  0  0  0  0
  6 13  1  0  0  0  0
  7  8  2  0  0  0  0
  7 14  1  0  0  0  0
  8  9  1  0  0  0  0
  9 15  1  0  0  0  0
M  END
> <PUBCHEM_COMPOUND_CID>
16640642

> <PUBCHEM_CONFORMER_RMSD>
0.4

> <PUBCHEM_CONFORMER_DIVERSEORDER>
1
10
8
11
2
9
3
7
12
4
6
5

> <PUBCHEM_MMFF94_PARTIAL_CHARGES>
12
1 -0.06
14 0.15
15 0.15
16 0.4
2 -0.68
3 0.31
4 -0.71
5 0.26
6 0.28
7 -0.3
8 0.06
9 0.14

> <PUBCHEM_EFFECTIVE_ROTOR_COUNT>
2

> <PUBCHEM_PHARMACOPHORE_FEATURES>
5
1 1 hydrophobe
1 2 acceptor
1 2 donor
1 4 acceptor
5 3 4 7 8 9 rings

> <PUBCHEM_HEAVY_ATOM_COUNT>
9

> <PUBCHEM_ATOM_DEF_STEREO_COUNT>
0

> <PUBCHEM_ATOM_UDEF_STEREO_COUNT>
0

> <PUBCHEM_BOND_DEF_STEREO_COUNT>
0

> <PUBCHEM_BOND_UDEF_STEREO_COUNT>
0

> <PUBCHEM_ISOTOPIC_ATOM_COUNT>
0

> <PUBCHEM_COMPONENT_COUNT>
1

> <PUBCHEM_CACTVS_TAUTO_COUNT>
1

> <PUBCHEM_CONFORMER_ID>
00FDEA8200000001

> <PUBCHEM_MMFF94_ENERGY>
4.2245

> <PUBCHEM_FEATURE_SELFOVERLAP>
25.372

> <PUBCHEM_SHAPE_FINGERPRINT>
12897270 3 18341606027662501013
12932764 1 18060136505344078753
14128692 85 17703784872781417125
14325111 11 18335144189309940808
14390081 3 17894634738055454892
20281407 28 13183022899746288452
21040471 1 18335426785262481962
21293036 1 18410577318272997772
23235685 24 18260553324428561145
23402655 69 18336254636346783837
23552423 10 18124881157330489863
29004967 10 18114192877800488361
528716 315 17989494034300052645

> <PUBCHEM_SHAPE_MULTIPOLES>
175.33
4.78
1.16
0.88
1.07
0.22
0.07
-1.02
1.54
0.13
-0.05
-0.33
-0.01
-0.25

> <PUBCHEM_SHAPE_SELFOVERLAP>
337.671

> <PUBCHEM_SHAPE_VOLUME>
110.1

> <PUBCHEM_COORDINATE_TYPE>
2
5
10

$$$$
23247855
  -OEChem-12051909403D

 19 19  0     0  0  0  0  0  0999 V2000
    3.3921   -1.6275    0.0979 Br  0  0  0  0  0  0  0  0  0  0  0  0
   -2.2868   -0.8300    0.1060 O   0  0  0  0  0  0  0  0  0  0  0  0
    0.1476    0.7291    0.3179 N   0  0  0  0  0  0  0  0  0  0  0  0
    0.7931    1.4276   -0.6318 N   0  0  0  0  0  0  0  0  0  0  0  0
   -1.1423    1.1771    0.7849 C   0  0  0  0  0  0  0  0  0  0  0  0
   -2.2918    0.5862   -0.0205 C   0  0  0  0  0  0  0  0  0  0  0  0
    0.8253   -0.3743    0.7468 C   0  0  0  0  0  0  0  0  0  0  0  0
    1.9951   -0.3995    0.0273 C   0  0  0  0  0  0  0  0  0  0  0  0
    1.9208    0.7333   -0.8051 C   0  0  0  0  0  0  0  0  0  0  0  0
   -3.3530   -1.4221   -0.6233 C   0  0  0  0  0  0  0  0  0  0  0  0
   -1.2224    0.8799    1.8371 H   0  0  0  0  0  0  0  0  0  0  0  0
   -1.1583    2.2715    0.7397 H   0  0  0  0  0  0  0  0  0  0  0  0
   -3.2405    0.9836    0.3582 H   0  0  0  0  0  0  0  0  0  0  0  0
   -2.1931    0.8584   -1.0782 H   0  0  0  0  0  0  0  0  0  0  0  0
    0.4284   -1.0321    1.5082 H   0  0  0  0  0  0  0  0  0  0  0  0
    2.6384    1.0862   -1.5325 H   0  0  0  0  0  0  0  0  0  0  0  0
   -3.3005   -2.5060   -0.4902 H   0  0  0  0  0  0  0  0  0  0  0  0
   -3.2599   -1.1966   -1.6900 H   0  0  0  0  0  0  0  0  0  0  0  0
   -4.3181   -1.0704   -0.2459 H   0  0  0  0  0  0  0  0  0  0  0  0
  1  8  1  0  0  0  0
  2  6  1  0  0  0  0
  2 10  1  0  0  0  0
  3  4  1  0  0  0  0
  3  5  1  0  0  0  0
  3  7  1  0  0  0  0
  4  9  2  0  0  0  0
  5  6  1  0  0  0  0
  5 11  1  0  0  0  0
  5 12  1  0  0  0  0
  6 13  1  0  0  0  0
  6 14  1  0  0  0  0
  7  8  2  0  0  0  0
  7 15  1  0  0  0  0
  8  9  1  0  0  0  0
  9 16  1  0  0  0  0
 10 17  1  0  0  0  0
 10 18  1  0  0  0  0
 10 19  1  0  0  0  0
M  END
> <PUBCHEM_COMPOUND_CID>
23247855

> <PUBCHEM_CONFORMER_RMSD>
0.6

> <PUBCHEM_CONFORMER_DIVERSEORDER>
2
3
8
6
13
7
11
1
5
10
14
12
4
9

> <PUBCHEM_MMFF94_PARTIAL_CHARGES>
12
1 -0.06
10 0.28
15 0.15
16 0.15
2 -0.56
3 0.31
4 -0.71
5 0.26
6 0.28
7 -0.3
8 0.06
9 0.14

> <PUBCHEM_EFFECTIVE_ROTOR_COUNT>
3

> <PUBCHEM_PHARMACOPHORE_FEATURES>
4
1 1 hydrophobe
1 2 acceptor
1 4 acceptor
5 3 4 7 8 9 rings

> <PUBCHEM_HEAVY_ATOM_COUNT>
10

> <PUBCHEM_ATOM_DEF_STEREO_COUNT>
0

> <PUBCHEM_ATOM_UDEF_STEREO_COUNT>
0

> <PUBCHEM_BOND_DEF_STEREO_COUNT>
0

> <PUBCHEM_BOND_UDEF_STEREO_COUNT>
0

> <PUBCHEM_ISOTOPIC_ATOM_COUNT>
0

> <PUBCHEM_COMPONENT_COUNT>
1

> <PUBCHEM_CACTVS_TAUTO_COUNT>
1

> <PUBCHEM_CONFORMER_ID>
0162BBEF00000002

> <PUBCHEM_MMFF94_ENERGY>
9.4588

> <PUBCHEM_FEATURE_SELFOVERLAP>
20.297

> <PUBCHEM_SHAPE_FINGERPRINT>
10857977 72 16200435771002354689
11769659 78 18340763754558612914
12897270 3 17823416170542805613
12932764 1 18340503200093431000
14128692 85 18409451358257601480
14390081 3 8358247138204091258
23552423 10 18333735710319073211
29004967 10 15410899522254445528
305870 269 10375869662881685404
449060 23 18340491045552300078
9939556 21 18336272253695924709

> <PUBCHEM_SHAPE_MULTIPOLES>
195.91
5.35
1.68
0.88
0.52
0.29
-0.01
3.57
-0.59
0.19
-0.19
-0.06
-0.1
-0.69

> <PUBCHEM_SHAPE_SELFOVERLAP>
374.97

> <PUBCHEM_SHAPE_VOLUME>
123.7

> <PUBCHEM_COORDINATE_TYPE>
2
5
10

$$$$
74833
  -OEChem-12051909403D

 27 27  0     0  0  0  0  0  0999 V2000
    3.4562    0.3442   -0.1447 S   0  0  0  0  0  0  0  0  0  0  0  0
    3.8610    1.2212    0.9451 O   0  0  0  0  0  0  0  0  0  0  0  0
    4.2243   -0.8607   -0.4265 O   0  0  0  0  0  0  0  0  0  0  0  0
   -3.6964    1.3325    0.7085 O   0  0  0  0  0  0  0  0  0  0  0  0
   -3.1854   -0.6832   -0.3322 N   0  0  0  0  0  0  0  0  0  0  0  0
    3.3370    1.2659   -1.5785 N   0  0  0  0  0  0  0  0  0  0  0  0
   -0.8781   -0.8279    0.4958 C   0  0  0  0  0  0  0  0  0  0  0  0
    1.7877   -0.1065    0.1011 C   0  0  0  0  0  0  0  0  0  0  0  0
   -2.3030   -1.2143    0.7080 C   0  0  0  0  0  0  0  0  0  0  0  0
   -0.3849    0.3518    1.0533 C   0  0  0  0  0  0  0  0  0  0  0  0
   -0.0383   -1.6469   -0.2590 C   0  0  0  0  0  0  0  0  0  0  0  0
    0.9481    0.7125    0.8560 C   0  0  0  0  0  0  0  0  0  0  0  0
    1.2946   -1.2862   -0.4563 C   0  0  0  0  0  0  0  0  0  0  0  0
   -3.7966    0.5430   -0.2270 C   0  0  0  0  0  0  0  0  0  0  0  0
   -4.6263    0.8546   -1.4437 C   0  0  0  0  0  0  0  0  0  0  0  0
   -2.4160   -2.3044    0.6996 H   0  0  0  0  0  0  0  0  0  0  0  0
   -2.6552   -0.8669    1.6867 H   0  0  0  0  0  0  0  0  0  0  0  0
   -1.0267    0.9987    1.6451 H   0  0  0  0  0  0  0  0  0  0  0  0
   -0.4113   -2.5670   -0.7010 H   0  0  0  0  0  0  0  0  0  0  0  0
    1.3093    1.6384    1.2947 H   0  0  0  0  0  0  0  0  0  0  0  0
    1.9289   -1.9355   -1.0532 H   0  0  0  0  0  0  0  0  0  0  0  0
   -3.3214   -1.2443   -1.1683 H   0  0  0  0  0  0  0  0  0  0  0  0
    3.4714    2.2818   -1.5048 H   0  0  0  0  0  0  0  0  0  0  0  0
    3.7182    0.8578   -2.4408 H   0  0  0  0  0  0  0  0  0  0  0  0
   -5.2172    1.7573   -1.2650 H   0  0  0  0  0  0  0  0  0  0  0  0
   -3.9698    1.0204   -2.3025 H   0  0  0  0  0  0  0  0  0  0  0  0
   -5.3083    0.0271   -1.6594 H   0  0  0  0  0  0  0  0  0  0  0  0
  1  2  2  0  0  0  0
  1  3  2  0  0  0  0
  1  6  1  0  0  0  0
  1  8  1  0  0  0  0
  4 14  2  0  0  0  0
  5  9  1  0  0  0  0
  5 14  1  0  0  0  0
  5 22  1  0  0  0  0
  6 23  1  0  0  0  0
  6 24  1  0  0  0  0
  7  9  1  0  0  0  0
  7 10  2  0  0  0  0
  7 11  1  0  0  0  0
  8 12  2  0  0  0  0
  8 13  1  0  0  0  0
  9 16  1  0  0  0  0
  9 17  1  0  0  0  0
 10 12  1  0  0  0  0
 10 18  1  0  0  0  0
 11 13  2  0  0  0  0
 11 19  1  0  0  0  0
 12 20  1  0  0  0  0
 13 21  1  0  0  0  0
 14 15  1  0  0  0  0
 15 25  1  0  0  0  0
 15 26  1  0  0  0  0
 15 27  1  0  0  0  0
M  END
> <PUBCHEM_COMPOUND_CID>
74833

> <PUBCHEM_CONFORMER_RMSD>
0.6

> <PUBCHEM_CONFORMER_DIVERSEORDER>
1
4
12
11
10
3
7
2
5
8
9
6

> <PUBCHEM_MMFF94_PARTIAL_CHARGES>
22
1 1.45
10 -0.15
11 -0.15
12 -0.15
13 -0.15
14 0.57
15 0.06
18 0.15
19 0.15
2 -0.65
20 0.15
21 0.15
22 0.37
23 0.42
24 0.42
3 -0.65
4 -0.57
5 -0.73
6 -0.98
7 -0.14
8 -0.01
9 0.44

> <PUBCHEM_EFFECTIVE_ROTOR_COUNT>
4

> <PUBCHEM_PHARMACOPHORE_FEATURES>
6
1 2 acceptor
1 3 acceptor
1 4 acceptor
1 5 donor
1 6 donor
6 7 8 10 11 12 13 rings

> <PUBCHEM_HEAVY_ATOM_COUNT>
15

> <PUBCHEM_ATOM_DEF_STEREO_COUNT>
0

> <PUBCHEM_ATOM_UDEF_STEREO_COUNT>
0

> <PUBCHEM_BOND_DEF_STEREO_COUNT>
0

> <PUBCHEM_BOND_UDEF_STEREO_COUNT>
0

> <PUBCHEM_ISOTOPIC_ATOM_COUNT>
0

> <PUBCHEM_COMPONENT_COUNT>
1

> <PUBCHEM_CACTVS_TAUTO_COUNT>
2

> <PUBCHEM_CONFORMER_ID>
0001245100000001

> <PUBCHEM_MMFF94_ENERGY>
12.2551

> <PUBCHEM_FEATURE_SELFOVERLAP>
30.465

> <PUBCHEM_SHAPE_FINGERPRINT>
11132069 177 18186514414837960309
11401426 45 17989200447758355146
11769659 78 12750971995997349542
12251169 10 11746940858961648659
12670546 177 16773506780502415533
13705890 14 14836406930166573460
14252887 29 7853574625755129364
14943859 89 17967250901327615051
14993402 34 16702019794254712463
15239191 94 10663820762974524965
16945 1 17703527565791610906
17834072 32 17822287960118073333
17834072 8 18410294679534346830
18186145 218 18261962859691291659
19026448 5 17168141303663346458
200 152 16988562381471667130
20233049 118 18411415129053954632
20281475 54 13110971928389538895
20300324 65 17775562040326422601
20645476 183 18191600854924100326
20645477 56 18335142046100109355
20645477 70 17989495108437924854
20671657 53 14764625326458590843
20871999 31 16271919437661973997
21256008 61 16128647574561562545
21503847 285 16660648457694368396
22485316 2 11527953335169747279
231179 274 17894904101472102765
23402539 116 18114452414052498574
23402655 69 18060419097049196341
23493267 7 18259991491193173522
23557571 272 18114475521525462871
23559900 14 18202566198778292410
25 1 18341333301713650355
2748010 2 17557142019195338170
4028521 119 18335974286545873061
4990 188 17060339612802800604
9882013 296 10737289051689344173

> <PUBCHEM_SHAPE_MULTIPOLES>
284.97
8.63
1.51
1.18
2.37
0.19
-0.16
-3.54
-2.41
0.06
-0.13
0.09
-0.36
0.38

> <PUBCHEM_SHAPE_SELFOVERLAP>
571.685

> <PUBCHEM_SHAPE_VOLUME>
167.7

> <PUBCHEM_COORDINATE_TYPE>
2
5
10

$$$$
60756752
  -OEChem-12051909403D

 19 19  0     0  0  0  0  0  0999 V2000
    2.2732   -1.3460    0.0872 O   0  0  0  0  0  0  0  0  0  0  0  0
    1.4244    0.8022    0.3772 N   0  0  0  0  0  0  0  0  0  0  0  0
   -2.6146   -0.8476   -0.4603 N   0  0  0  0  0  0  0  0  0  0  0  0
   -2.8345    0.4521   -0.7221 N   0  0  0  0  0  0  0  0  0  0  0  0
    0.3298    0.4652    1.2586 C   0  0  0  0  0  0  0  0  0  0  0  0
   -0.9276    0.1542    0.4995 C   0  0  0  0  0  0  0  0  0  0  0  0
   -1.4853   -1.0796    0.2685 C   0  0  0  0  0  0  0  0  0  0  0  0
   -1.8007    1.0592   -0.1334 C   0  0  0  0  0  0  0  0  0  0  0  0
    2.3033   -0.1380   -0.1328 C   0  0  0  0  0  0  0  0  0  0  0  0
    3.3322    0.4782   -1.0423 C   0  0  0  0  0  0  0  0  0  0  0  0
    0.1638    1.3239    1.9178 H   0  0  0  0  0  0  0  0  0  0  0  0
    0.6189   -0.3886    1.8817 H   0  0  0  0  0  0  0  0  0  0  0  0
    1.5291    1.7758    0.1061 H   0  0  0  0  0  0  0  0  0  0  0  0
   -1.1883   -2.0800    0.5496 H   0  0  0  0  0  0  0  0  0  0  0  0
   -1.7286    2.1360   -0.1911 H   0  0  0  0  0  0  0  0  0  0  0  0
   -3.2786   -1.5267   -0.8109 H   0  0  0  0  0  0  0  0  0  0  0  0
    3.7788    1.3581   -0.5702 H   0  0  0  0  0  0  0  0  0  0  0  0
    4.1238   -0.2476   -1.2478 H   0  0  0  0  0  0  0  0  0  0  0  0
    2.8582    0.7704   -1.9834 H   0  0  0  0  0  0  0  0  0  0  0  0
  1  9  2  0  0  0  0
  2  5  1  0  0  0  0
  2  9  1  0  0  0  0
  2 13  1  0  0  0  0
  3  4  1  0  0  0  0
  3  7  1  0  0  0  0
  3 16  1  0  0  0  0
  4  8  2  0  0  0  0
  5  6  1  0  0  0  0
  5 11  1  0  0  0  0
  5 12  1  0  0  0  0
  6  7  2  0  0  0  0
  6  8  1  0  0  0  0
  7 14  1  0  0  0  0
  8 15  1  0  0  0  0
  9 10  1  0  0  0  0
 10 17  1  0  0  0  0
 10 18  1  0  0  0  0
 10 19  1  0  0  0  0
M  END
> <PUBCHEM_COMPOUND_CID>
60756752

> <PUBCHEM_CONFORMER_RMSD>
0.6

> <PUBCHEM_CONFORMER_DIVERSEORDER>
1
4
6
2
3
5

> <PUBCHEM_MMFF94_PARTIAL_CHARGES>
14
1 -0.57
10 0.06
13 0.37
14 0.15
15 0.15
16 0.27
2 -0.73
3 0.3
4 -0.71
5 0.48
6 -0.18
7 -0.3
8 0.14
9 0.57

> <PUBCHEM_EFFECTIVE_ROTOR_COUNT>
3

> <PUBCHEM_PHARMACOPHORE_FEATURES>
5
1 1 acceptor
1 2 donor
1 3 donor
1 4 acceptor
5 3 4 6 7 8 rings

> <PUBCHEM_HEAVY_ATOM_COUNT>
10

> <PUBCHEM_ATOM_DEF_STEREO_COUNT>
0

> <PUBCHEM_ATOM_UDEF_STEREO_COUNT>
0

> <PUBCHEM_BOND_DEF_STEREO_COUNT>
0

> <PUBCHEM_BOND_UDEF_STEREO_COUNT>
0

> <PUBCHEM_ISOTOPIC_ATOM_COUNT>
0

> <PUBCHEM_COMPONENT_COUNT>
1

> <PUBCHEM_CACTVS_TAUTO_COUNT>
2

> <PUBCHEM_CONFORMER_ID>
039F131000000001

> <PUBCHEM_MMFF94_ENERGY>
5.4649

> <PUBCHEM_FEATURE_SELFOVERLAP>
25.372

> <PUBCHEM_SHAPE_FINGERPRINT>
10857977 72 8718538454510767177
12251169 10 9871747983787634500
12696612 119 9439395844033948890
12897270 3 18336549407998585708
12932764 1 18343864428566522720
14390081 3 15140675882242788709
15310529 11 18333454243911295490
20201158 50 18060137626372818902
20653085 51 17677054521071019877
20711985 344 17058666066153852696
21028194 46 13984662546717631840
23552423 10 18188766145905808051
29004967 10 16630803326596098648
3248919 1 17894909633300257392
369184 2 11455888053256215707
528716 315 18262531380348905060

> <PUBCHEM_SHAPE_MULTIPOLES>
184.98
4.96
1.16
0.99
1.85
0.2
-0.1
0.04
1.97
-0.13
0.01
0.16
-0.14
-0.07

> <PUBCHEM_SHAPE_SELFOVERLAP>
372.542

> <PUBCHEM_SHAPE_VOLUME>
109.8

> <PUBCHEM_COORDINATE_TYPE>
2
5
10

$$$$
53613703
  -OEChem-12051909403D

 23 23  0     0  0  0  0  0  0999 V2000
    2.9438   -1.6362    0.0010 Cl  0  0  0  0  0  0  0  0  0  0  0  0
    3.0792    1.0614   -0.0095 O   0  0  0  0  0  0  0  0  0  0  0  0
   -0.3942    0.5622    0.0012 N   0  0  0  0  0  0  0  0  0  0  0  0
   -1.0253   -1.7636   -0.0001 N   0  0  0  0  0  0  0  0  0  0  0  0
    1.3499    2.5673    0.0046 N   0  0  0  0  0  0  0  0  0  0  0  0
   -2.7545   -0.0454   -0.0017 C   0  0  0  0  0  0  0  0  0  0  0  0
   -1.2901   -0.4432    0.0004 C   0  0  0  0  0  0  0  0  0  0  0  0
   -3.1221    0.7413   -1.2622 C   0  0  0  0  0  0  0  0  0  0  0  0
   -3.1266    0.7393    1.2588 C   0  0  0  0  0  0  0  0  0  0  0  0
    0.8979    0.1732    0.0015 C   0  0  0  0  0  0  0  0  0  0  0  0
    1.3014   -1.1464    0.0012 C   0  0  0  0  0  0  0  0  0  0  0  0
    0.2862   -2.0811    0.0002 C   0  0  0  0  0  0  0  0  0  0  0  0
    1.8545    1.2711    0.0045 C   0  0  0  0  0  0  0  0  0  0  0  0
   -3.3533   -0.9659   -0.0035 H   0  0  0  0  0  0  0  0  0  0  0  0
   -2.5874    1.6915    1.3156 H   0  0  0  0  0  0  0  0  0  0  0  0
   -2.5829    1.6938   -1.3155 H   0  0  0  0  0  0  0  0  0  0  0  0
   -4.1950    0.9604   -1.2832 H   0  0  0  0  0  0  0  0  0  0  0  0
   -2.8770    0.1696   -2.1642 H   0  0  0  0  0  0  0  0  0  0  0  0
   -2.8848    0.1660    2.1607 H   0  0  0  0  0  0  0  0  0  0  0  0
   -4.1995    0.9585    1.2762 H   0  0  0  0  0  0  0  0  0  0  0  0
    0.4926   -3.1469   -0.0003 H   0  0  0  0  0  0  0  0  0  0  0  0
    0.3529    2.7580    0.0086 H   0  0  0  0  0  0  0  0  0  0  0  0
    1.9714    3.3692    0.0004 H   0  0  0  0  0  0  0  0  0  0  0  0
  1 11  1  0  0  0  0
  2 13  2  0  0  0  0
  3  7  1  0  0  0  0
  3 10  2  0  0  0  0
  4  7  2  0  0  0  0
  4 12  1  0  0  0  0
  5 13  1  0  0  0  0
  5 22  1  0  0  0  0
  5 23  1  0  0  0  0
  6  7  1  0  0  0  0
  6  8  1  0  0  0  0
  6  9  1  0  0  0  0
  6 14  1  0  0  0  0
  8 16  1  0  0  0  0
  8 17  1  0  0  0  0
  8 18  1  0  0  0  0
  9 15  1  0  0  0  0
  9 19  1  0  0  0  0
  9 20  1  0  0  0  0
 10 11  1  0  0  0  0
 10 13  1  0  0  0  0
 11 12  2  0  0  0  0
 12 21  1  0  0  0  0
M  END
> <PUBCHEM_COMPOUND_CID>
53613703

> <PUBCHEM_CONFORMER_RMSD>
0.6

> <PUBCHEM_CONFORMER_DIVERSEORDER>
1
5
8
3
7
6
2
4

> <PUBCHEM_MMFF94_PARTIAL_CHARGES>
14
1 -0.18
10 0.4
11 0.18
12 0.16
13 0.54
2 -0.57
21 0.15
22 0.37
23 0.37
3 -0.62
4 -0.62
5 -0.8
6 0.14
7 0.48

> <PUBCHEM_EFFECTIVE_ROTOR_COUNT>
2

> <PUBCHEM_PHARMACOPHORE_FEATURES>
6
1 2 acceptor
1 3 acceptor
1 5 donor
3 3 4 7 cation
3 6 8 9 hydrophobe
6 3 4 7 10 11 12 rings

> <PUBCHEM_HEAVY_ATOM_COUNT>
13

> <PUBCHEM_ATOM_DEF_STEREO_COUNT>
0

> <PUBCHEM_ATOM_UDEF_STEREO_COUNT>
0

> <PUBCHEM_BOND_DEF_STEREO_COUNT>
0

> <PUBCHEM_BOND_UDEF_STEREO_COUNT>
0

> <PUBCHEM_ISOTOPIC_ATOM_COUNT>
0

> <PUBCHEM_COMPONENT_COUNT>
1

> <PUBCHEM_CACTVS_TAUTO_COUNT>
12

> <PUBCHEM_CONFORMER_ID>
0332148700000001

> <PUBCHEM_MMFF94_ENERGY>
30.2201

> <PUBCHEM_FEATURE_SELFOVERLAP>
30.446

> <PUBCHEM_SHAPE_FINGERPRINT>
10219947 1 18339640019135991378
11471102 20 18410290268602816693
124424 183 17677886829824550363
12654215 9 18189323581094620180
12932764 1 17822293448869823891
13380535 21 18263658401289905366
13380535 76 18338510958133218850
14325111 11 18410856577072931303
14897335 6 18341040917219197414
15219456 202 18187082828258527925
15279308 100 18334854995997437694
15775835 57 18410016567348139189
16945 1 18338517413358340418
17844478 74 17894924996641043461
18186145 218 18342463625014541845
193761 8 18194682789921443682
20510252 161 17477489067515235192
20671657 1 18339370763536299828
20715346 28 17894915122453051845
21130352 189 18336261232772575582
21501502 16 18339079405555251222
21524375 3 18265613371486804514
21639500 275 18339910580764184029
2334 1 18338516472781634102
23559900 14 18198922473453607556
25 1 18409169887349108854
2748010 2 18337958990369033966
3071541 158 18188492372074107836
63268167 104 18411979152595998121
77492 1 17703786981815931813
81228 2 17400642022138021010

> <PUBCHEM_SHAPE_MULTIPOLES>
248.59
5.02
2.22
0.86
1.66
0.38
0
0.68
0
-1.62
0
0.83
0.12
0

> <PUBCHEM_SHAPE_SELFOVERLAP>
504.713

> <PUBCHEM_SHAPE_VOLUME>
145.9

> <PUBCHEM_COORDINATE_TYPE>
2
5
10

$$$$
62731461
  -OEChem-12051909403D

 29 30  0     1  0  0  0  0  0999 V2000
    3.9087    1.1920   -0.1079 O   0  0  0  0  0  0  0  0  0  0  0  0
   -0.3420   -0.0160   -0.2196 N   0  0  0  0  0  0  0  0  0  0  0  0
   -0.0897    0.1345    1.0918 N   0  0  0  0  0  0  0  0  0  0  0  0
   -1.7722   -0.0669   -0.7088 C   0  0  0  0  0  0  0  0  0  0  0  0
   -2.6005    1.1968   -0.3968 C   0  0  0  0  0  0  0  0  0  0  0  0
   -2.5612   -1.2414   -0.1033 C   0  0  0  0  0  0  0  0  0  0  0  0
   -3.7408    0.7335    0.5027 C   0  0  0  0  0  0  0  0  0  0  0  0
   -3.9732   -0.7057    0.0777 C   0  0  0  0  0  0  0  0  0  0  0  0
    0.7799   -0.1093   -0.9896 C   0  0  0  0  0  0  0  0  0  0  0  0
    1.8400   -0.0129   -0.1215 C   0  0  0  0  0  0  0  0  0  0  0  0
    1.2449    0.1358    1.1456 C   0  0  0  0  0  0  0  0  0  0  0  0
    3.2748   -0.0550   -0.4457 C   0  0  2  0  0  0  0  0  0  0  0  0
    4.0313   -1.1854    0.2754 C   0  0  0  0  0  0  0  0  0  0  0  0
   -1.6908   -0.1879   -1.7966 H   0  0  0  0  0  0  0  0  0  0  0  0
   -3.0153    1.5922   -1.3322 H   0  0  0  0  0  0  0  0  0  0  0  0
   -2.0189    1.9991    0.0682 H   0  0  0  0  0  0  0  0  0  0  0  0
   -2.1552   -1.5486    0.8676 H   0  0  0  0  0  0  0  0  0  0  0  0
   -2.5421   -2.1198   -0.7567 H   0  0  0  0  0  0  0  0  0  0  0  0
   -4.6354    1.3524    0.3901 H   0  0  0  0  0  0  0  0  0  0  0  0
   -3.4285    0.7715    1.5531 H   0  0  0  0  0  0  0  0  0  0  0  0
   -4.5409   -1.2735    0.8202 H   0  0  0  0  0  0  0  0  0  0  0  0
   -4.5180   -0.7398   -0.8731 H   0  0  0  0  0  0  0  0  0  0  0  0
    0.7318   -0.2331   -2.0629 H   0  0  0  0  0  0  0  0  0  0  0  0
    1.7246    0.2464    2.1078 H   0  0  0  0  0  0  0  0  0  0  0  0
    3.4039   -0.1882   -1.5268 H   0  0  0  0  0  0  0  0  0  0  0  0
    4.0234   -1.0361    1.3610 H   0  0  0  0  0  0  0  0  0  0  0  0
    5.0823   -1.1968   -0.0330 H   0  0  0  0  0  0  0  0  0  0  0  0
    3.5898   -2.1624    0.0544 H   0  0  0  0  0  0  0  0  0  0  0  0
    4.8414    1.1260   -0.3754 H   0  0  0  0  0  0  0  0  0  0  0  0
  1 12  1  0  0  0  0
  1 29  1  0  0  0  0
  2  3  1  0  0  0  0
  2  4  1  0  0  0  0
  2  9  1  0  0  0  0
  3 11  2  0  0  0  0
  4  5  1  0  0  0  0
  4  6  1  0  0  0  0
  4 14  1  0  0  0  0
  5  7  1  0  0  0  0
  5 15  1  0  0  0  0
  5 16  1  0  0  0  0
  6  8  1  0  0  0  0
  6 17  1  0  0  0  0
  6 18  1  0  0  0  0
  7  8  1  0  0  0  0
  7 19  1  0  0  0  0
  7 20  1  0  0  0  0
  8 21  1  0  0  0  0
  8 22  1  0  0  0  0
  9 10  2  0  0  0  0
  9 23  1  0  0  0  0
 10 11  1  0  0  0  0
 10 12  1  0  0  0  0
 11 24  1  0  0  0  0
 12 13  1  0  0  0  0
 12 25  1  0  0  0  0
 13 26  1  0  0  0  0
 13 27  1  0  0  0  0
 13 28  1  0  0  0  0
M  END
> <PUBCHEM_COMPOUND_CID>
62731461

> <PUBCHEM_CONFORMER_RMSD>
0.6

> <PUBCHEM_CONFORMER_DIVERSEORDER>
1
7
17
4
8
20
2
11
22
18
6
21
5
16
3
10
13
12
9
19
14
15

> <PUBCHEM_MMFF94_PARTIAL_CHARGES>
11
1 -0.68
10 -0.18
11 0.14
12 0.46
2 0.31
23 0.15
24 0.15
29 0.4
3 -0.71
4 0.26
9 -0.3

> <PUBCHEM_EFFECTIVE_ROTOR_COUNT>
3

> <PUBCHEM_PHARMACOPHORE_FEATURES>
5
1 1 acceptor
1 1 donor
1 3 acceptor
5 2 3 9 10 11 rings
5 4 5 6 7 8 rings

> <PUBCHEM_HEAVY_ATOM_COUNT>
13

> <PUBCHEM_ATOM_DEF_STEREO_COUNT>
0

> <PUBCHEM_ATOM_UDEF_STEREO_COUNT>
1

> <PUBCHEM_BOND_DEF_STEREO_COUNT>
0

> <PUBCHEM_BOND_UDEF_STEREO_COUNT>
0

> <PUBCHEM_ISOTOPIC_ATOM_COUNT>
0

> <PUBCHEM_COMPONENT_COUNT>
1

> <PUBCHEM_CACTVS_TAUTO_COUNT>
1

> <PUBCHEM_CONFORMER_ID>
03BD34C500000001

> <PUBCHEM_MMFF94_ENERGY>
14.4526

> <PUBCHEM_FEATURE_SELFOVERLAP>
25.372

> <PUBCHEM_SHAPE_FINGERPRINT>
10130415 120 17418089910398178450
10219947 1 14056720145134819102
10465860 250 17917423194778221154
11062470 55 11959728269968378927
11132069 177 16370725962874559346
12032990 46 15430320200478189082
124424 183 17775280539126084455
12932764 1 18338784676277322867
13760787 19 18343303682248069310
14144814 61 16225760805002625272
14289901 80 18336546113742806648
14325111 11 18408322185533003310
14943859 89 18410294700940370945
14993402 34 13912330070699416534
15309172 13 15574715789799507409
15653759 3 18131347527221310763
18186145 218 17748823003859427694
190213 19 17530684311903025471
19026448 4 18408601452954520124
19026448 5 18409449189267501006
19422 9 18333452044882765271
200 152 15936407871119561203
20279233 1 16702019768505942895
20281407 28 16559032688082046822
20281475 54 16630526236970927366
20645464 45 17775007882160344407
20645477 70 18131355168137364550
22485316 2 18413105078140918599
23402539 116 18333725806103363861
23402655 69 14635131435952105095
23559900 14 18201436948659984050
42 15 18335985289640116510
474 4 17460321177243353052
57812782 119 11314026881033704501
633830 44 16298391236198607198
74978 22 15338825521378039341
77779 3 18409450284368090926

> <PUBCHEM_SHAPE_MULTIPOLES>
251.7
7.93
1.12
0.96
1.51
0.04
-0.09
0.42
-0.27
-0.17
0.01
0.09
-0.04
-0.13

> <PUBCHEM_SHAPE_SELFOVERLAP>
516.755

> <PUBCHEM_SHAPE_VOLUME>
149.1

> <PUBCHEM_COORDINATE_TYPE>
2
5
10

$$$$
47031280
  -OEChem-12051909403D

 25 26  0     0  0  0  0  0  0999 V2000
   -3.4978    1.3299    0.0089 O   0  0  0  0  0  0  0  0  0  0  0  0
   -0.3717   -1.8825   -0.0045 O   0  0  0  0  0  0  0  0  0  0  0  0
    4.0381    0.4115    0.0051 N   0  0  0  0  0  0  0  0  0  0  0  0
    0.5182    0.2997   -0.0211 N   0  0  0  0  0  0  0  0  0  0  0  0
    3.9154   -0.9268    0.0191 N   0  0  0  0  0  0  0  0  0  0  0  0
   -2.1157    1.1854   -0.0004 N   0  0  0  0  0  0  0  0  0  0  0  0
    1.8760    0.1015   -0.0080 C   0  0  0  0  0  0  0  0  0  0  0  0
    2.8459    1.0740   -0.0114 C   0  0  0  0  0  0  0  0  0  0  0  0
   -1.9062   -0.1340   -0.0078 C   0  0  0  0  0  0  0  0  0  0  0  0
   -0.5177   -0.6650   -0.0189 C   0  0  0  0  0  0  0  0  0  0  0  0
    2.5924   -1.1102    0.0109 C   0  0  0  0  0  0  0  0  0  0  0  0
   -3.1067   -0.8652   -0.0035 C   0  0  0  0  0  0  0  0  0  0  0  0
   -4.0767    0.1019    0.0070 C   0  0  0  0  0  0  0  0  0  0  0  0
    5.3508    1.0112    0.0086 C   0  0  0  0  0  0  0  0  0  0  0  0
   -5.5444    0.0686    0.0162 C   0  0  0  0  0  0  0  0  0  0  0  0
    2.7883    2.1542   -0.0239 H   0  0  0  0  0  0  0  0  0  0  0  0
    0.2329    1.2767   -0.0302 H   0  0  0  0  0  0  0  0  0  0  0  0
    2.2203   -2.1244    0.0192 H   0  0  0  0  0  0  0  0  0  0  0  0
   -3.2506   -1.9357   -0.0075 H   0  0  0  0  0  0  0  0  0  0  0  0
    5.8719    0.6928    0.9149 H   0  0  0  0  0  0  0  0  0  0  0  0
    5.8859    0.6727   -0.8821 H   0  0  0  0  0  0  0  0  0  0  0  0
    5.2553    2.0997   -0.0043 H   0  0  0  0  0  0  0  0  0  0  0  0
   -5.9351    0.5679    0.9081 H   0  0  0  0  0  0  0  0  0  0  0  0
   -5.9464    0.5759   -0.8662 H   0  0  0  0  0  0  0  0  0  0  0  0
   -5.9164   -0.9607    0.0139 H   0  0  0  0  0  0  0  0  0  0  0  0
  1  6  1  0  0  0  0
  1 13  1  0  0  0  0
  2 10  2  0  0  0  0
  3  5  1  0  0  0  0
  3  8  1  0  0  0  0
  3 14  1  0  0  0  0
  4  7  1  0  0  0  0
  4 10  1  0  0  0  0
  4 17  1  0  0  0  0
  5 11  2  0  0  0  0
  6  9  2  0  0  0  0
  7  8  2  0  0  0  0
  7 11  1  0  0  0  0
  8 16  1  0  0  0  0
  9 10  1  0  0  0  0
  9 12  1  0  0  0  0
 11 18  1  0  0  0  0
 12 13  2  0  0  0  0
 12 19  1  0  0  0  0
 13 15  1  0  0  0  0
 14 20  1  0  0  0  0
 14 21  1  0  0  0  0
 14 22  1  0  0  0  0
 15 23  1  0  0  0  0
 15 24  1  0  0  0  0
 15 25  1  0  0  0  0
M  END
> <PUBCHEM_COMPOUND_CID>
47031280

> <PUBCHEM_CONFORMER_RMSD>
0.6

> <PUBCHEM_CONFORMER_DIVERSEORDER>
1
7
4
6
5
2
3
8

> <PUBCHEM_MMFF94_PARTIAL_CHARGES>
19
1 -0.02
10 0.72
11 0.14
12 -0.15
13 -0.04
14 0.26
15 0.18
16 0.15
17 0.37
18 0.15
19 0.15
2 -0.57
3 0.31
4 -0.49
5 -0.71
6 -0.41
7 0.06
8 -0.3
9 0.2

> <PUBCHEM_EFFECTIVE_ROTOR_COUNT>
3

> <PUBCHEM_PHARMACOPHORE_FEATURES>
6
1 2 acceptor
1 4 donor
1 5 acceptor
1 6 acceptor
5 1 6 9 12 13 rings
5 3 5 7 8 11 rings

> <PUBCHEM_HEAVY_ATOM_COUNT>
15

> <PUBCHEM_ATOM_DEF_STEREO_COUNT>
0

> <PUBCHEM_ATOM_UDEF_STEREO_COUNT>
0

> <PUBCHEM_BOND_DEF_STEREO_COUNT>
0

> <PUBCHEM_BOND_UDEF_STEREO_COUNT>
0

> <PUBCHEM_ISOTOPIC_ATOM_COUNT>
0

> <PUBCHEM_COMPONENT_COUNT>
1

> <PUBCHEM_CACTVS_TAUTO_COUNT>
2

> <PUBCHEM_CONFORMER_ID>
02CDA3F000000001

> <PUBCHEM_MMFF94_ENERGY>
16.0914

> <PUBCHEM_FEATURE_SELFOVERLAP>
30.446

> <PUBCHEM_SHAPE_FINGERPRINT>
11471102 20 18411980252429359742
12916748 109 18410862048671401393
13081056 2 18411419496713765733
14123238 8 18131350817029070317
14252887 29 13118274855163176048
14325111 11 18410855447269685647
15048467 5 18335984255207268900
15196674 1 18338797818898574981
17802600 8 18410289211751088181
17834072 33 18342173405500247318
17834076 25 17418375800796357056
18186145 218 18342181024819690108
18522853 276 18412263938908344793
187816 3 16774081782139207755
200 152 17846495937559225443
20279233 1 17894638053843943706
20645477 56 18410854399271252680
20645477 70 18200878370709308174
21119208 17 12319738063695053313
21267235 1 18410582768423095854
212847 35 18342737408005661744
21652331 79 18409166606099875469
23402539 116 18343576369695032879
23402655 69 18272931613501785612
23559900 14 18273213114992027082
300161 21 18411410726385097118
351380 180 18410854369401803341
3545911 37 18411420626611787964
366044 4 18410011048278519883
4047638 21 18410576193344948482
42 15 18260267434330893698
4214541 1 18410575076089001061
42788 4 18410856563934795844
449060 50 18335420192551083572
474 4 17386574712033724900
5104073 3 18337110072813057195
522135 26 18408886218129529870
542803 24 16988565705723548313
69090 78 18342735234472875351
77779 3 18410857650598477482
9709674 26 18411987983081030886

> <PUBCHEM_SHAPE_MULTIPOLES>
277.03
11.3
1.35
0.58
0.15
0.19
0
-2.7
0.08
-0.28
0
0.01
0
-0.01

> <PUBCHEM_SHAPE_SELFOVERLAP>
587.557

> <PUBCHEM_SHAPE_VOLUME>
157.8

> <PUBCHEM_COORDINATE_TYPE>
2
5
10

$$$$
71695441
  -OEChem-12051909403D

 20 20  0     0  0  0  0  0  0999 V2000
    1.3147   -1.8696    0.0000 O   0  0  0  0  0  0  0  0  0  0  0  0
   -0.7080   -0.7010    0.0000 N   0  0  0  0  0  0  0  0  0  0  0  0
    2.8303    0.3868   -0.0002 N   0  0  0  0  0  0  0  0  0  0  0  0
   -1.3640    0.5344   -0.0001 C   0  0  0  0  0  0  0  0  0  0  0  0
    0.6959   -0.8037    0.0000 C   0  0  0  0  0  0  0  0  0  0  0  0
   -0.6500    1.6709    0.0000 C   0  0  0  0  0  0  0  0  0  0  0  0
    1.4703    0.4884    0.0001 C   0  0  0  0  0  0  0  0  0  0  0  0
    0.7844    1.6392    0.0001 C   0  0  0  0  0  0  0  0  0  0  0  0
   -1.5070   -1.9263    0.0001 C   0  0  0  0  0  0  0  0  0  0  0  0
   -2.8666    0.5809   -0.0001 C   0  0  0  0  0  0  0  0  0  0  0  0
   -1.1267    2.6455   -0.0001 H   0  0  0  0  0  0  0  0  0  0  0  0
    1.2994    2.5951    0.0001 H   0  0  0  0  0  0  0  0  0  0  0  0
   -2.1299   -1.9567   -0.8989 H   0  0  0  0  0  0  0  0  0  0  0  0
   -2.1298   -1.9566    0.8990 H   0  0  0  0  0  0  0  0  0  0  0  0
   -0.8712   -2.8161    0.0001 H   0  0  0  0  0  0  0  0  0  0  0  0
   -3.2730    0.0930   -0.8918 H   0  0  0  0  0  0  0  0  0  0  0  0
   -3.2422    1.6105   -0.0002 H   0  0  0  0  0  0  0  0  0  0  0  0
   -3.2731    0.0931    0.8916 H   0  0  0  0  0  0  0  0  0  0  0  0
    3.3999    1.2237   -0.0003 H   0  0  0  0  0  0  0  0  0  0  0  0
    3.2683   -0.5258   -0.0004 H   0  0  0  0  0  0  0  0  0  0  0  0
  1  5  2  0  0  0  0
  2  4  1  0  0  0  0
  2  5  1  0  0  0  0
  2  9  1  0  0  0  0
  3  7  1  0  0  0  0
  3 19  1  0  0  0  0
  3 20  1  0  0  0  0
  4  6  2  0  0  0  0
  4 10  1  0  0  0  0
  5  7  1  0  0  0  0
  6  8  1  0  0  0  0
  6 11  1  0  0  0  0
  7  8  2  0  0  0  0
  8 12  1  0  0  0  0
  9 13  1  0  0  0  0
  9 14  1  0  0  0  0
  9 15  1  0  0  0  0
 10 16  1  0  0  0  0
 10 17  1  0  0  0  0
 10 18  1  0  0  0  0
M  END
> <PUBCHEM_COMPOUND_CID>
71695441

> <PUBCHEM_CONFORMER_RMSD>
0.4

> <PUBCHEM_CONFORMER_DIVERSEORDER>
1

> <PUBCHEM_MMFF94_PARTIAL_CHARGES>
14
1 -0.57
10 0.14
11 0.15
12 0.15
19 0.4
2 -0.47
20 0.4
3 -0.9
4 -0.03
5 0.62
6 -0.15
7 0.11
8 -0.15
9 0.3

> <PUBCHEM_EFFECTIVE_ROTOR_COUNT>
0

> <PUBCHEM_PHARMACOPHORE_FEATURES>
4
1 1 acceptor
1 3 cation
1 3 donor
6 2 4 5 6 7 8 rings

> <PUBCHEM_HEAVY_ATOM_COUNT>
10

> <PUBCHEM_ATOM_DEF_STEREO_COUNT>
0

> <PUBCHEM_ATOM_UDEF_STEREO_COUNT>
0

> <PUBCHEM_BOND_DEF_STEREO_COUNT>
0

> <PUBCHEM_BOND_UDEF_STEREO_COUNT>
0

> <PUBCHEM_ISOTOPIC_ATOM_COUNT>
0

> <PUBCHEM_COMPONENT_COUNT>
1

> <PUBCHEM_CACTVS_TAUTO_COUNT>
5

> <PUBCHEM_CONFORMER_ID>
0445FC5100000001

> <PUBCHEM_MMFF94_ENERGY>
25.4608

> <PUBCHEM_FEATURE_SELFOVERLAP>
20.297

> <PUBCHEM_SHAPE_FINGERPRINT>
12423570 1 17967251992080853989
16945 1 18410575080400045957
18185500 45 18410854382101933021
193761 8 17618222153355088997
21040471 1 18410856533901848677
23235685 24 18410849958291217665
23402655 69 18195509417298574413
23552423 10 18116995696227567676
241688 4 17833833767963705480
2748010 2 18122624121935723181
29004967 10 18261682488610860081
5084963 1 17913779589158062898
528886 8 18411695508491984984
66348 1 18411700967421713871

> <PUBCHEM_SHAPE_MULTIPOLES>
189.96
3.15
2.07
0.59
0.12
0.53
0
-0.24
0
0.21
0
0.03
-0.02
0

> <PUBCHEM_SHAPE_SELFOVERLAP>
389.817

> <PUBCHEM_SHAPE_VOLUME>
109

> <PUBCHEM_COORDINATE_TYPE>
2
5
10

$$$$
225773
  -OEChem-12051909403D

 28 29  0     0  0  0  0  0  0999 V2000
    4.0122    0.6405    1.0279 O   0  0  0  0  0  0  0  0  0  0  0  0
    0.0014   -0.5475    0.3281 N   0  0  0  0  0  0  0  0  0  0  0  0
   -1.6935   -1.8585   -0.2621 N   0  0  0  0  0  0  0  0  0  0  0  0
    4.3708    0.9372   -1.2239 N   0  0  0  0  0  0  0  0  0  0  0  0
    1.3409   -0.1502    0.6997 C   0  0  0  0  0  0  0  0  0  0  0  0
   -1.0793    0.2868    0.2001 C   0  0  0  0  0  0  0  0  0  0  0  0
   -0.4156   -1.8176    0.0417 C   0  0  0  0  0  0  0  0  0  0  0  0
   -2.1247   -0.5552   -0.1689 C   0  0  0  0  0  0  0  0  0  0  0  0
    2.1911    0.2104   -0.5142 C   0  0  0  0  0  0  0  0  0  0  0  0
   -1.2277    1.6637    0.3702 C   0  0  0  0  0  0  0  0  0  0  0  0
    0.5024   -2.9747    0.0841 C   0  0  0  0  0  0  0  0  0  0  0  0
   -3.4009   -0.0083   -0.3850 C   0  0  0  0  0  0  0  0  0  0  0  0
   -2.5045    2.1910    0.1509 C   0  0  0  0  0  0  0  0  0  0  0  0
   -3.5733    1.3717   -0.2201 C   0  0  0  0  0  0  0  0  0  0  0  0
    3.6007    0.6109   -0.1283 C   0  0  0  0  0  0  0  0  0  0  0  0
    1.2653    0.6994    1.3884 H   0  0  0  0  0  0  0  0  0  0  0  0
    1.7985   -0.9636    1.2735 H   0  0  0  0  0  0  0  0  0  0  0  0
    1.7348    1.0446   -1.0613 H   0  0  0  0  0  0  0  0  0  0  0  0
    2.2530   -0.6378   -1.2063 H   0  0  0  0  0  0  0  0  0  0  0  0
   -0.4008    2.3040    0.6552 H   0  0  0  0  0  0  0  0  0  0  0  0
   -0.0143   -3.8813   -0.2480 H   0  0  0  0  0  0  0  0  0  0  0  0
    1.3632   -2.8272   -0.5745 H   0  0  0  0  0  0  0  0  0  0  0  0
    0.8607   -3.1537    1.1025 H   0  0  0  0  0  0  0  0  0  0  0  0
   -4.2376   -0.6366   -0.6735 H   0  0  0  0  0  0  0  0  0  0  0  0
   -2.6672    3.2593    0.2709 H   0  0  0  0  0  0  0  0  0  0  0  0
   -4.5541    1.8108   -0.3837 H   0  0  0  0  0  0  0  0  0  0  0  0
    5.3378    1.2244   -1.1152 H   0  0  0  0  0  0  0  0  0  0  0  0
    4.0080    0.9048   -2.1714 H   0  0  0  0  0  0  0  0  0  0  0  0
  1 15  2  0  0  0  0
  2  5  1  0  0  0  0
  2  6  1  0  0  0  0
  2  7  1  0  0  0  0
  3  7  2  0  0  0  0
  3  8  1  0  0  0  0
  4 15  1  0  0  0  0
  4 27  1  0  0  0  0
  4 28  1  0  0  0  0
  5  9  1  0  0  0  0
  5 16  1  0  0  0  0
  5 17  1  0  0  0  0
  6  8  1  0  0  0  0
  6 10  2  0  0  0  0
  7 11  1  0  0  0  0
  8 12  2  0  0  0  0
  9 15  1  0  0  0  0
  9 18  1  0  0  0  0
  9 19  1  0  0  0  0
 10 13  1  0  0  0  0
 10 20  1  0  0  0  0
 11 21  1  0  0  0  0
 11 22  1  0  0  0  0
 11 23  1  0  0  0  0
 12 14  1  0  0  0  0
 12 24  1  0  0  0  0
 13 14  2  0  0  0  0
 13 25  1  0  0  0  0
 14 26  1  0  0  0  0
M  END
> <PUBCHEM_COMPOUND_CID>
225773

> <PUBCHEM_CONFORMER_RMSD>
0.6

> <PUBCHEM_CONFORMER_DIVERSEORDER>
1
11
7
10
14
2
12
13
8
9
5
16
15
3
18
17
6
4

> <PUBCHEM_MMFF94_PARTIAL_CHARGES>
21
1 -0.57
10 -0.15
11 0.18
12 -0.15
13 -0.15
14 -0.15
15 0.57
2 0.05
20 0.15
24 0.15
25 0.15
26 0.15
27 0.37
28 0.37
3 -0.57
4 -0.8
5 0.26
6 -0.15
7 0.01
8 0.23
9 0.06

> <PUBCHEM_EFFECTIVE_ROTOR_COUNT>
3

> <PUBCHEM_PHARMACOPHORE_FEATURES>
5
1 1 acceptor
1 4 donor
3 2 3 7 cation
5 2 3 6 7 8 rings
6 6 8 10 12 13 14 rings

> <PUBCHEM_HEAVY_ATOM_COUNT>
15

> <PUBCHEM_ATOM_DEF_STEREO_COUNT>
0

> <PUBCHEM_ATOM_UDEF_STEREO_COUNT>
0

> <PUBCHEM_BOND_DEF_STEREO_COUNT>
0

> <PUBCHEM_BOND_UDEF_STEREO_COUNT>
0

> <PUBCHEM_ISOTOPIC_ATOM_COUNT>
0

> <PUBCHEM_COMPONENT_COUNT>
1

> <PUBCHEM_CACTVS_TAUTO_COUNT>
2

> <PUBCHEM_CONFORMER_ID>
000371ED00000001

> <PUBCHEM_MMFF94_ENERGY>
24.0396

> <PUBCHEM_FEATURE_SELFOVERLAP>
25.479

> <PUBCHEM_SHAPE_FINGERPRINT>
12173636 292 18410851092325958596
12346645 44 18410008793446666985
12788726 201 17608378166250271282
13380535 76 18336824208480314307
14614273 12 18261384504054085869
14897335 6 18338229375681897682
15669948 3 18337668741106238998
15775835 57 18186522090055248884
16945 1 18341879793520964531
1741750 31 18412825767911926504
18186145 218 17918000472916530744
20510252 161 18270122438559973026
20645476 183 18187087303535562942
20645477 56 18412265077544105248
20671657 1 18123751950288305782
21501502 16 18125714592008679315
21524375 3 18334290933726601386
23366157 5 17971194716240175594
23402539 116 18342726447201591156
23552423 10 18049998888451970899
23557571 272 18128832991088520902
23559900 14 18202283615800330440
2748010 2 18194965132866163399
2838139 119 16589403355647256085
305870 269 18335421201657537778
3071541 12 18051697633331504207
3071541 158 17617657652987084671
43471831 8 18408599236651714363
53812653 8 18410851045239463227
57177213 63 18337670806790316635
7364860 26 18053660283109413106
77492 1 17821998848525473000
81228 2 17837762696746133747
81539 233 18188205386501596063

> <PUBCHEM_SHAPE_MULTIPOLES>
287.88
6.73
2.46
0.82
5.45
1.51
0.03
-4.2
1.09
-0.74
-0.05
0.57
-0.15
-0.34

> <PUBCHEM_SHAPE_SELFOVERLAP>
614.353

> <PUBCHEM_SHAPE_VOLUME>
162.2

> <PUBCHEM_COORDINATE_TYPE>
2
5
10

$$$$
43663543
  -OEChem-12051909403D

 27 28  0     0  0  0  0  0  0999 V2000
   -1.9204    2.1670    0.7411 F   0  0  0  0  0  0  0  0  0  0  0  0
   -0.1741    0.0820    0.1486 N   0  0  0  0  0  0  0  0  0  0  0  0
    4.1272    0.4348   -0.0798 N   0  0  0  0  0  0  0  0  0  0  0  0
    4.2048   -0.2482    1.0751 N   0  0  0  0  0  0  0  0  0  0  0  0
    2.1632   -0.5070    0.0840 C   0  0  0  0  0  0  0  0  0  0  0  0
    0.7509   -0.9678   -0.1476 C   0  0  0  0  0  0  0  0  0  0  0  0
    2.9250    0.3129   -0.7124 C   0  0  0  0  0  0  0  0  0  0  0  0
   -1.5720   -0.0783    0.0499 C   0  0  0  0  0  0  0  0  0  0  0  0
    3.0022   -0.8215    1.1697 C   0  0  0  0  0  0  0  0  0  0  0  0
    2.6453    0.9859   -1.9921 C   0  0  0  0  0  0  0  0  0  0  0  0
   -2.4215    0.9854    0.3538 C   0  0  0  0  0  0  0  0  0  0  0  0
   -2.1044   -1.3033   -0.3517 C   0  0  0  0  0  0  0  0  0  0  0  0
   -3.8035    0.8241    0.2562 C   0  0  0  0  0  0  0  0  0  0  0  0
   -3.4865   -1.4648   -0.4494 C   0  0  0  0  0  0  0  0  0  0  0  0
   -4.3362   -0.4011   -0.1455 C   0  0  0  0  0  0  0  0  0  0  0  0
    0.6575   -1.2880   -1.1929 H   0  0  0  0  0  0  0  0  0  0  0  0
    0.5646   -1.8407    0.4906 H   0  0  0  0  0  0  0  0  0  0  0  0
    0.1647    0.9928    0.4400 H   0  0  0  0  0  0  0  0  0  0  0  0
    2.7896   -1.4439    2.0274 H   0  0  0  0  0  0  0  0  0  0  0  0
    4.9371    0.9653   -0.3763 H   0  0  0  0  0  0  0  0  0  0  0  0
    1.9069    1.7817   -1.8511 H   0  0  0  0  0  0  0  0  0  0  0  0
    3.5466    1.4343   -2.4226 H   0  0  0  0  0  0  0  0  0  0  0  0
    2.2455    0.2752   -2.7225 H   0  0  0  0  0  0  0  0  0  0  0  0
   -1.4807   -2.1570   -0.5990 H   0  0  0  0  0  0  0  0  0  0  0  0
   -4.4647    1.6524    0.4929 H   0  0  0  0  0  0  0  0  0  0  0  0
   -3.9018   -2.4183   -0.7624 H   0  0  0  0  0  0  0  0  0  0  0  0
   -5.4123   -0.5266   -0.2216 H   0  0  0  0  0  0  0  0  0  0  0  0
  1 11  1  0  0  0  0
  2  6  1  0  0  0  0
  2  8  1  0  0  0  0
  2 18  1  0  0  0  0
  3  4  1  0  0  0  0
  3  7  1  0  0  0  0
  3 20  1  0  0  0  0
  4  9  2  0  0  0  0
  5  6  1  0  0  0  0
  5  7  2  0  0  0  0
  5  9  1  0  0  0  0
  6 16  1  0  0  0  0
  6 17  1  0  0  0  0
  7 10  1  0  0  0  0
  8 11  1  0  0  0  0
  8 12  2  0  0  0  0
  9 19  1  0  0  0  0
 10 21  1  0  0  0  0
 10 22  1  0  0  0  0
 10 23  1  0  0  0  0
 11 13  2  0  0  0  0
 12 14  1  0  0  0  0
 12 24  1  0  0  0  0
 13 15  1  0  0  0  0
 13 25  1  0  0  0  0
 14 15  2  0  0  0  0
 14 26  1  0  0  0  0
 15 27  1  0  0  0  0
M  END
> <PUBCHEM_COMPOUND_CID>
43663543

> <PUBCHEM_CONFORMER_RMSD>
0.6

> <PUBCHEM_CONFORMER_DIVERSEORDER>
1
22
25
4
33
11
19
6
35
12
36
3
16
13
27
24
2
38
30
34
5
21
28
7
9
8
18
26
17
15
23
32
31
14
29
20
10
37

> <PUBCHEM_MMFF94_PARTIAL_CHARGES>
22
1 -0.19
10 0.18
11 0.19
12 -0.15
13 -0.15
14 -0.15
15 -0.15
18 0.4
19 0.15
2 -0.87
20 0.27
24 0.15
25 0.15
26 0.15
27 0.15
3 0.3
4 -0.71
5 -0.18
6 0.55
7 -0.33
8 0.1
9 0.14

> <PUBCHEM_EFFECTIVE_ROTOR_COUNT>
3

> <PUBCHEM_PHARMACOPHORE_FEATURES>
6
1 2 cation
1 2 donor
1 3 donor
1 4 acceptor
5 3 4 5 7 9 rings
6 8 11 12 13 14 15 rings

> <PUBCHEM_HEAVY_ATOM_COUNT>
15

> <PUBCHEM_ATOM_DEF_STEREO_COUNT>
0

> <PUBCHEM_ATOM_UDEF_STEREO_COUNT>
0

> <PUBCHEM_BOND_DEF_STEREO_COUNT>
0

> <PUBCHEM_BOND_UDEF_STEREO_COUNT>
0

> <PUBCHEM_ISOTOPIC_ATOM_COUNT>
0

> <PUBCHEM_COMPONENT_COUNT>
1

> <PUBCHEM_CACTVS_TAUTO_COUNT>
2

> <PUBCHEM_CONFORMER_ID>
029A40B700000001

> <PUBCHEM_MMFF94_ENERGY>
32.7195

> <PUBCHEM_FEATURE_SELFOVERLAP>
30.446

> <PUBCHEM_SHAPE_FINGERPRINT>
11132069 177 18343303643608934341
11615757 297 17676209082444002230
12162725 195 18259707795812945462
12173636 292 18129383688096442861
12236239 1 18259703406224532606
13296908 3 16845578599345160862
14144814 61 18409450271419976475
15375358 24 16988840579335583391
15669948 3 18342735247611030343
17802600 8 18334570252556188164
18186145 218 17385725794092858826
19050596 39 18334576845372860811
19107657 47 16732699454330128852
192875 21 17894910732717296820
200 152 17822284699957988879
20279233 1 16988846081151876942
20645477 70 15936400118503418330
21618674 57 14418120790879550940
2255824 54 17530687615239492538
22646028 1 18187359934937104378
23048698 100 17676206879220666318
23402539 116 18342446054635883775
23557571 272 17703517618362536136
23559900 14 17988649540972333854
2838139 119 16951671512414803549
3268164 11 18060409206119426141
474 4 17459477839018866740
573450 72 18337660945482192771
77492 1 18259707808629334167
9971528 1 17968092006886363014

> <PUBCHEM_SHAPE_MULTIPOLES>
286.48
8.97
1.44
1.14
0.78
0.28
-0.26
-0.07
0.41
-0.73
0.01
0.95
0.26
-1.47

> <PUBCHEM_SHAPE_SELFOVERLAP>
609.867

> <PUBCHEM_SHAPE_VOLUME>
160.5

> <PUBCHEM_COORDINATE_TYPE>
2
5
10

$$$$
95207831
  -OEChem-12051909403D

 26 27  0     0  0  0  0  0  0999 V2000
   -1.7305   -1.1126   -0.6261 O   0  0  0  0  0  0  0  0  0  0  0  0
    1.1867    2.6017    0.0068 O   0  0  0  0  0  0  0  0  0  0  0  0
    0.9671    0.3745   -0.6063 N   0  0  0  0  0  0  0  0  0  0  0  0
    1.4248   -0.9123   -0.5531 N   0  0  0  0  0  0  0  0  0  0  0  0
   -2.9104   -1.3351    0.0733 N   0  0  0  0  0  0  0  0  0  0  0  0
   -0.2284    0.6449   -1.3823 C   0  0  0  0  0  0  0  0  0  0  0  0
   -1.4746    0.2202   -0.6607 C   0  0  0  0  0  0  0  0  0  0  0  0
   -2.4630    0.8968    0.0038 C   0  0  0  0  0  0  0  0  0  0  0  0
    1.5825    1.4367    0.0409 C   0  0  0  0  0  0  0  0  0  0  0  0
    2.4910   -1.1464    0.1407 C   0  0  0  0  0  0  0  0  0  0  0  0
   -3.3295   -0.1205    0.4396 C   0  0  0  0  0  0  0  0  0  0  0  0
    2.7978    1.1184    0.8214 C   0  0  0  0  0  0  0  0  0  0  0  0
    3.2547   -0.1295    0.8819 C   0  0  0  0  0  0  0  0  0  0  0  0
    3.0068   -2.5605    0.2100 C   0  0  0  0  0  0  0  0  0  0  0  0
   -4.5751    0.0235    1.2100 C   0  0  0  0  0  0  0  0  0  0  0  0
   -0.1480    0.0976   -2.3293 H   0  0  0  0  0  0  0  0  0  0  0  0
   -0.2984    1.7087   -1.6347 H   0  0  0  0  0  0  0  0  0  0  0  0
   -2.5420    1.9641    0.1494 H   0  0  0  0  0  0  0  0  0  0  0  0
    3.3002    1.9278    1.3383 H   0  0  0  0  0  0  0  0  0  0  0  0
    4.1397   -0.3977    1.4428 H   0  0  0  0  0  0  0  0  0  0  0  0
    2.2344   -3.2040    0.6416 H   0  0  0  0  0  0  0  0  0  0  0  0
    3.9098   -2.6357    0.8213 H   0  0  0  0  0  0  0  0  0  0  0  0
    3.2356   -2.9098   -0.8012 H   0  0  0  0  0  0  0  0  0  0  0  0
   -5.4266   -0.3730    0.6474 H   0  0  0  0  0  0  0  0  0  0  0  0
   -4.5080   -0.5174    2.1596 H   0  0  0  0  0  0  0  0  0  0  0  0
   -4.7839    1.0741    1.4372 H   0  0  0  0  0  0  0  0  0  0  0  0
  1  5  1  0  0  0  0
  1  7  1  0  0  0  0
  2  9  2  0  0  0  0
  3  4  1  0  0  0  0
  3  6  1  0  0  0  0
  3  9  1  0  0  0  0
  4 10  2  0  0  0  0
  5 11  2  0  0  0  0
  6  7  1  0  0  0  0
  6 16  1  0  0  0  0
  6 17  1  0  0  0  0
  7  8  2  0  0  0  0
  8 11  1  0  0  0  0
  8 18  1  0  0  0  0
  9 12  1  0  0  0  0
 10 13  1  0  0  0  0
 10 14  1  0  0  0  0
 11 15  1  0  0  0  0
 12 13  2  0  0  0  0
 12 19  1  0  0  0  0
 13 20  1  0  0  0  0
 14 21  1  0  0  0  0
 14 22  1  0  0  0  0
 14 23  1  0  0  0  0
 15 24  1  0  0  0  0
 15 25  1  0  0  0  0
 15 26  1  0  0  0  0
M  END
> <PUBCHEM_COMPOUND_CID>
95207831

> <PUBCHEM_CONFORMER_RMSD>
0.6

> <PUBCHEM_CONFORMER_DIVERSEORDER>
1
17
5
15
9
19
14
8
18
2
10
16
13
11
7
6
4
12
3

> <PUBCHEM_MMFF94_PARTIAL_CHARGES>
18
1 -0.02
10 0.37
11 0.11
12 -0.14
13 -0.14
14 0.06
15 0.18
18 0.15
19 0.15
2 -0.57
20 0.15
3 -0.3
4 -0.51
5 -0.41
6 0.48
7 -0.04
8 -0.15
9 0.62

> <PUBCHEM_EFFECTIVE_ROTOR_COUNT>
2

> <PUBCHEM_PHARMACOPHORE_FEATURES>
5
1 2 acceptor
1 4 acceptor
1 5 acceptor
5 1 5 7 8 11 rings
6 3 4 9 10 12 13 rings

> <PUBCHEM_HEAVY_ATOM_COUNT>
15

> <PUBCHEM_ATOM_DEF_STEREO_COUNT>
0

> <PUBCHEM_ATOM_UDEF_STEREO_COUNT>
0

> <PUBCHEM_BOND_DEF_STEREO_COUNT>
0

> <PUBCHEM_BOND_UDEF_STEREO_COUNT>
0

> <PUBCHEM_ISOTOPIC_ATOM_COUNT>
0

> <PUBCHEM_COMPONENT_COUNT>
1

> <PUBCHEM_CACTVS_TAUTO_COUNT>
4

> <PUBCHEM_CONFORMER_ID>
05ACC19700000001

> <PUBCHEM_MMFF94_ENERGY>
25.024

> <PUBCHEM_FEATURE_SELFOVERLAP>
25.373

> <PUBCHEM_SHAPE_FINGERPRINT>
10799339 124 18412826867613555809
11471102 22 18411133641197272472
12251169 10 18413389856174073357
12382932 28 18342167877882696432
12696612 119 18340766030717148220
13296908 3 18114456764896651742
13675066 3 18113623395998251777
13764800 53 14692294010028869375
14252887 29 18113621187651838776
15375462 189 18261107431424271170
15501101 241 18260826025034908708
15527383 91 18272932674817702162
15775835 57 16916783023910130769
16945 1 18338505447784929068
17804303 29 18263935349508190871
18915474 69 12613042724990861089
201361 129 18270964677637003424
20281407 28 17822291236618560742
20361792 2 16225763038696771463
20559304 39 18411707603146582540
20645477 70 18187631540406146631
20871998 22 18336544907078464414
21065199 12 18410294713946741817
22445834 79 18340764944121966831
2255824 54 18190184683620477164
231179 274 13183021795876305426
23557571 272 12901817384967639727
2748010 2 18195224647622420380
31174 14 18335137622136315653
5262128 65 12036281677063828322
7097593 13 18342455950045244243

> <PUBCHEM_SHAPE_MULTIPOLES>
282.01
7.03
2.06
1.05
5.02
0.08
-0.03
2.07
3.07
-1.97
0.05
0.28
-0.1
0.18

> <PUBCHEM_SHAPE_SELFOVERLAP>
593.036

> <PUBCHEM_SHAPE_VOLUME>
159.1

> <PUBCHEM_COORDINATE_TYPE>
2
5
10

$$$$
71755944
  -OEChem-12051909403D

 20 20  0     0  0  0  0  0  0999 V2000
    2.2220    0.0302    0.1075 S   0  0  0  0  0  0  0  0  0  0  0  0
   -2.2392   -2.4212   -0.0189 F   0  0  0  0  0  0  0  0  0  0  0  0
    2.6418    1.2970    0.6898 O   0  0  0  0  0  0  0  0  0  0  0  0
    2.6905   -1.2217    0.6850 O   0  0  0  0  0  0  0  0  0  0  0  0
    2.5954    0.0388   -1.5598 N   0  0  0  0  0  0  0  0  0  0  0  0
    0.4768   -0.0020    0.0577 C   0  0  0  0  0  0  0  0  0  0  0  0
   -1.6367    1.1669    0.0008 C   0  0  0  0  0  0  0  0  0  0  0  0
   -0.2426    1.1928    0.0391 C   0  0  0  0  0  0  0  0  0  0  0  0
   -0.1979   -1.2227    0.0381 C   0  0  0  0  0  0  0  0  0  0  0  0
   -2.3114   -0.0536   -0.0190 C   0  0  0  0  0  0  0  0  0  0  0  0
   -1.5920   -1.2485   -0.0003 C   0  0  0  0  0  0  0  0  0  0  0  0
   -2.4067    2.4440   -0.0199 C   0  0  0  0  0  0  0  0  0  0  0  0
    0.2734    2.1494    0.0495 H   0  0  0  0  0  0  0  0  0  0  0  0
    0.3418   -2.1653    0.0461 H   0  0  0  0  0  0  0  0  0  0  0  0
   -3.3972   -0.0878   -0.0472 H   0  0  0  0  0  0  0  0  0  0  0  0
   -2.5727    2.7990    1.0021 H   0  0  0  0  0  0  0  0  0  0  0  0
   -1.8696    3.2176   -0.5791 H   0  0  0  0  0  0  0  0  0  0  0  0
   -3.3793    2.3143   -0.5068 H   0  0  0  0  0  0  0  0  0  0  0  0
    2.9712    0.9073   -1.9597 H   0  0  0  0  0  0  0  0  0  0  0  0
    3.0032   -0.8143   -1.9614 H   0  0  0  0  0  0  0  0  0  0  0  0
  1  3  2  0  0  0  0
  1  4  2  0  0  0  0
  1  5  1  0  0  0  0
  1  6  1  0  0  0  0
  2 11  1  0  0  0  0
  5 19  1  0  0  0  0
  5 20  1  0  0  0  0
  6  8  2  0  0  0  0
  6  9  1  0  0  0  0
  7  8  1  0  0  0  0
  7 10  2  0  0  0  0
  7 12  1  0  0  0  0
  8 13  1  0  0  0  0
  9 11  2  0  0  0  0
  9 14  1  0  0  0  0
 10 11  1  0  0  0  0
 10 15  1  0  0  0  0
 12 16  1  0  0  0  0
 12 17  1  0  0  0  0
 12 18  1  0  0  0  0
M  END
> <PUBCHEM_COMPOUND_CID>
71755944

> <PUBCHEM_CONFORMER_RMSD>
0.4

> <PUBCHEM_CONFORMER_DIVERSEORDER>
1
4
2
3

> <PUBCHEM_MMFF94_PARTIAL_CHARGES>
17
1 1.45
10 -0.15
11 0.19
12 0.14
13 0.15
14 0.15
15 0.15
19 0.42
2 -0.19
20 0.42
3 -0.65
4 -0.65
5 -0.98
6 -0.01
7 -0.14
8 -0.15
9 -0.15

> <PUBCHEM_EFFECTIVE_ROTOR_COUNT>
1

> <PUBCHEM_PHARMACOPHORE_FEATURES>
4
1 3 acceptor
1 4 acceptor
1 5 donor
6 6 7 8 9 10 11 rings

> <PUBCHEM_HEAVY_ATOM_COUNT>
12

> <PUBCHEM_ATOM_DEF_STEREO_COUNT>
0

> <PUBCHEM_ATOM_UDEF_STEREO_COUNT>
0

> <PUBCHEM_BOND_DEF_STEREO_COUNT>
0

> <PUBCHEM_BOND_UDEF_STEREO_COUNT>
0

> <PUBCHEM_ISOTOPIC_ATOM_COUNT>
0

> <PUBCHEM_COMPONENT_COUNT>
1

> <PUBCHEM_CACTVS_TAUTO_COUNT>
1

> <PUBCHEM_CONFORMER_ID>
0446E8A800000001

> <PUBCHEM_MMFF94_ENERGY>
8.2114

> <PUBCHEM_FEATURE_SELFOVERLAP>
20.315

> <PUBCHEM_SHAPE_FINGERPRINT>
1 1 17761205519112146509
12716758 59 18341052917204724687
12932764 1 18410865355954403512
13380535 76 18196363715751195191
14325111 11 18338513028175586832
15775835 57 18261961717504291080
16945 1 18410576193028404877
18380122 1 17915457414079923032
19973954 147 18412259566800371112
20645464 45 18131345289406257928
20645476 183 18042705921681054862
20871998 184 18200876283170293527
20871998 22 18053393381099214599
21040471 1 18266179431096755445
21501502 16 18411412917119176480
21524375 3 18046344124559590233
22802520 49 18129957692841808654
23402539 116 18270098151036937317
23552423 10 18188775083753505548
23559900 14 18128262182495149246
241688 4 18194400219964910641
2748010 2 18051688034490612613
3248919 1 17240483641121522074
369184 2 18411975866782395473
5084963 1 17749387018732681676
6333449 129 18412822473777680617
8030462 33 18259988201469594878
81228 2 18337392737938845729

> <PUBCHEM_SHAPE_MULTIPOLES>
226.81
4.32
2.19
0.82
1.79
0.27
0.21
-0.76
0.06
-1.78
-0.13
0.59
-0.06
-0.02

> <PUBCHEM_SHAPE_SELFOVERLAP>
459.159

> <PUBCHEM_SHAPE_VOLUME>
135.1

> <PUBCHEM_COORDINATE_TYPE>
2
5
10

$$$$
90269
  -OEChem-12051909403D

 15 15  0     0  0  0  0  0  0999 V2000
    0.5783   -1.7337    0.0002 S   0  0  0  0  0  0  0  0  0  0  0  0
   -2.1859   -1.3082   -0.0003 O   0  0  0  0  0  0  0  0  0  0  0  0
   -2.2523    0.9546    0.0002 O   0  0  0  0  0  0  0  0  0  0  0  0
    0.8003    0.8259   -0.0001 C   0  0  0  0  0  0  0  0  0  0  0  0
   -0.1412   -0.1797   -0.0001 C   0  0  0  0  0  0  0  0  0  0  0  0
    2.1300    0.3137   -0.0001 C   0  0  0  0  0  0  0  0  0  0  0  0
    0.4829    2.2744    0.0000 C   0  0  0  0  0  0  0  0  0  0  0  0
    2.1540   -1.0635    0.0001 C   0  0  0  0  0  0  0  0  0  0  0  0
   -1.5660   -0.0834    0.0000 C   0  0  0  0  0  0  0  0  0  0  0  0
    3.0280    0.9186   -0.0002 H   0  0  0  0  0  0  0  0  0  0  0  0
    1.3931    2.8836   -0.0001 H   0  0  0  0  0  0  0  0  0  0  0  0
   -0.0955    2.5451   -0.8895 H   0  0  0  0  0  0  0  0  0  0  0  0
   -0.0952    2.5449    0.8898 H   0  0  0  0  0  0  0  0  0  0  0  0
    3.0215   -1.7082    0.0003 H   0  0  0  0  0  0  0  0  0  0  0  0
   -3.1629   -1.2185   -0.0002 H   0  0  0  0  0  0  0  0  0  0  0  0
  1  5  1  0  0  0  0
  1  8  1  0  0  0  0
  2  9  1  0  0  0  0
  2 15  1  0  0  0  0
  3  9  2  0  0  0  0
  4  5  2  0  0  0  0
  4  6  1  0  0  0  0
  4  7  1  0  0  0  0
  5  9  1  0  0  0  0
  6  8  2  0  0  0  0
  6 10  1  0  0  0  0
  7 11  1  0  0  0  0
  7 12  1  0  0  0  0
  7 13  1  0  0  0  0
  8 14  1  0  0  0  0
M  END
> <PUBCHEM_COMPOUND_CID>
90269

> <PUBCHEM_CONFORMER_RMSD>
0.4

> <PUBCHEM_CONFORMER_DIVERSEORDER>
1
2

> <PUBCHEM_MMFF94_PARTIAL_CHARGES>
12
1 -0.08
10 0.15
14 0.15
15 0.5
2 -0.65
3 -0.57
4 -0.18
5 -0.05
6 -0.15
7 0.18
8 -0.11
9 0.81

> <PUBCHEM_EFFECTIVE_ROTOR_COUNT>
1

> <PUBCHEM_PHARMACOPHORE_FEATURES>
4
1 2 acceptor
1 3 acceptor
3 2 3 9 anion
5 1 4 5 6 8 rings

> <PUBCHEM_HEAVY_ATOM_COUNT>
9

> <PUBCHEM_ATOM_DEF_STEREO_COUNT>
0

> <PUBCHEM_ATOM_UDEF_STEREO_COUNT>
0

> <PUBCHEM_BOND_DEF_STEREO_COUNT>
0

> <PUBCHEM_BOND_UDEF_STEREO_COUNT>
0

> <PUBCHEM_ISOTOPIC_ATOM_COUNT>
0

> <PUBCHEM_COMPONENT_COUNT>
1

> <PUBCHEM_CACTVS_TAUTO_COUNT>
1

> <PUBCHEM_CONFORMER_ID>
0001609D00000001

> <PUBCHEM_MMFF94_ENERGY>
12.9792

> <PUBCHEM_FEATURE_SELFOVERLAP>
20.357

> <PUBCHEM_SHAPE_FINGERPRINT>
16945 1 18122343480388149318
18185500 45 18411700945941732578
193761 8 17690000463266176766
21040471 1 18266459991403544676
23552423 10 18260835851920192118
241688 4 18338800013742687288
2748010 2 18411417310775768238
29004967 10 18409732841776865026
5084963 1 18058172902115026531
66348 1 18339923697282874529

> <PUBCHEM_SHAPE_MULTIPOLES>
177.33
2.9
2.06
0.61
0.75
0.56
0
-0.51
0
-0.16
0
-0.05
-0.01
0

> <PUBCHEM_SHAPE_SELFOVERLAP>
355.637

> <PUBCHEM_SHAPE_VOLUME>
105.6

> <PUBCHEM_COORDINATE_TYPE>
2
5
10

$$$$
5531
  -OEChem-12051909403D

 30 31  0     0  0  0  0  0  0999 V2000
    1.7622   -0.0842    0.0136 N   0  0  0  0  0  0  0  0  0  0  0  0
   -0.4545    0.7416   -0.0480 N   0  0  0  0  0  0  0  0  0  0  0  0
   -2.4070   -0.6593    0.0278 N   0  0  0  0  0  0  0  0  0  0  0  0
   -0.1645    2.0669   -0.1270 N   0  0  0  0  0  0  0  0  0  0  0  0
   -2.4210    1.7613   -0.1199 N   0  0  0  0  0  0  0  0  0  0  0  0
    0.4226   -0.3482    0.0228 C   0  0  0  0  0  0  0  0  0  0  0  0
    2.6215   -0.4809    1.1213 C   0  0  0  0  0  0  0  0  0  0  0  0
    2.4377    0.3759   -1.1926 C   0  0  0  0  0  0  0  0  0  0  0  0
   -0.1018   -1.5823    0.0954 C   0  0  0  0  0  0  0  0  0  0  0  0
   -1.8434    0.5791   -0.0450 C   0  0  0  0  0  0  0  0  0  0  0  0
   -1.5926   -1.6709    0.0933 C   0  0  0  0  0  0  0  0  0  0  0  0
    2.5401    0.5172    2.2639 C   0  0  0  0  0  0  0  0  0  0  0  0
    2.7681   -0.7860   -2.1139 C   0  0  0  0  0  0  0  0  0  0  0  0
   -2.1952   -3.0514    0.1757 C   0  0  0  0  0  0  0  0  0  0  0  0
   -1.3722    2.6211   -0.1676 C   0  0  0  0  0  0  0  0  0  0  0  0
    2.3494   -1.4777    1.4889 H   0  0  0  0  0  0  0  0  0  0  0  0
    3.6667   -0.5589    0.7972 H   0  0  0  0  0  0  0  0  0  0  0  0
    1.8164    1.0944   -1.7398 H   0  0  0  0  0  0  0  0  0  0  0  0
    3.3580    0.9133   -0.9327 H   0  0  0  0  0  0  0  0  0  0  0  0
    0.4936   -2.4846    0.1471 H   0  0  0  0  0  0  0  0  0  0  0  0
    2.8275    1.5196    1.9294 H   0  0  0  0  0  0  0  0  0  0  0  0
    1.5240    0.5771    2.6676 H   0  0  0  0  0  0  0  0  0  0  0  0
    3.2111    0.2216    3.0765 H   0  0  0  0  0  0  0  0  0  0  0  0
    3.4045   -1.5223   -1.6120 H   0  0  0  0  0  0  0  0  0  0  0  0
    1.8609   -1.2998   -2.4480 H   0  0  0  0  0  0  0  0  0  0  0  0
    3.2986   -0.4268   -3.0013 H   0  0  0  0  0  0  0  0  0  0  0  0
   -2.8210   -3.1184    1.0704 H   0  0  0  0  0  0  0  0  0  0  0  0
   -1.4255   -3.8257    0.2248 H   0  0  0  0  0  0  0  0  0  0  0  0
   -2.8164   -3.2266   -0.7076 H   0  0  0  0  0  0  0  0  0  0  0  0
   -1.4893    3.6924   -0.2334 H   0  0  0  0  0  0  0  0  0  0  0  0
  1  6  1  0  0  0  0
  1  7  1  0  0  0  0
  1  8  1  0  0  0  0
  2  4  1  0  0  0  0
  2  6  1  0  0  0  0
  2 10  1  0  0  0  0
  3 10  1  0  0  0  0
  3 11  2  0  0  0  0
  4 15  2  0  0  0  0
  5 10  2  0  0  0  0
  5 15  1  0  0  0  0
  6  9  2  0  0  0  0
  7 12  1  0  0  0  0
  7 16  1  0  0  0  0
  7 17  1  0  0  0  0
  8 13  1  0  0  0  0
  8 18  1  0  0  0  0
  8 19  1  0  0  0  0
  9 11  1  0  0  0  0
  9 20  1  0  0  0  0
 11 14  1  0  0  0  0
 12 21  1  0  0  0  0
 12 22  1  0  0  0  0
 12 23  1  0  0  0  0
 13 24  1  0  0  0  0
 13 25  1  0  0  0  0
 13 26  1  0  0  0  0
 14 27  1  0  0  0  0
 14 28  1  0  0  0  0
 14 29  1  0  0  0  0
 15 30  1  0  0  0  0
M  END
> <PUBCHEM_COMPOUND_CID>
5531

> <PUBCHEM_CONFORMER_RMSD>
0.6

> <PUBCHEM_CONFORMER_DIVERSEORDER>
1
9
5
10
7
8
2
4
6
3

> <PUBCHEM_MMFF94_PARTIAL_CHARGES>
15
1 -0.84
10 0.31
11 0.37
14 0.06
15 0.37
2 0.6
20 0.15
3 -0.58
30 0.15
4 -0.71
5 -0.57
6 0.07
7 0.37
8 0.37
9 -0.14

> <PUBCHEM_EFFECTIVE_ROTOR_COUNT>
3

> <PUBCHEM_PHARMACOPHORE_FEATURES>
5
1 1 cation
1 3 acceptor
4 2 3 5 10 cation
5 2 4 5 10 15 rings
6 2 3 6 9 10 11 rings

> <PUBCHEM_HEAVY_ATOM_COUNT>
15

> <PUBCHEM_ATOM_DEF_STEREO_COUNT>
0

> <PUBCHEM_ATOM_UDEF_STEREO_COUNT>
0

> <PUBCHEM_BOND_DEF_STEREO_COUNT>
0

> <PUBCHEM_BOND_UDEF_STEREO_COUNT>
0

> <PUBCHEM_ISOTOPIC_ATOM_COUNT>
0

> <PUBCHEM_COMPONENT_COUNT>
1

> <PUBCHEM_CACTVS_TAUTO_COUNT>
1

> <PUBCHEM_CONFORMER_ID>
0000159B00000001

> <PUBCHEM_MMFF94_ENERGY>
37.0384

> <PUBCHEM_FEATURE_SELFOVERLAP>
25.515

> <PUBCHEM_SHAPE_FINGERPRINT>
1 1 17545872733722188903
12202030 40 17632589257294845430
12423570 1 15100170282245547568
12553582 1 18119814865711941331
12716758 59 18269562641160077966
13083527 12 17043135820872943251
13538477 17 18113616781062943474
13898156 1 17822009800644676226
14817 1 11978480509641968064
16945 1 18409449185046419127
17804303 29 18194950852068717338
18380122 1 17916577799269934626
20511035 2 17831011330363543891
20645476 183 17896053065195147559
20645477 70 17115229720633999383
20711985 344 18336842964507517863
20871998 22 18052831526277992791
22112679 90 17894347761700203388
22802520 49 18200895988432696990
228727 97 17605855813160184310
2334 1 17905327686652276499
23419403 2 17121086698814992961
23526113 38 17559404556865126438
23557571 272 18343301513299841816
23559900 14 18127982897941385574
23598291 2 17168711804074094628
23598294 1 18261127265387740563
25610 171 18411694417586070746
2748010 2 18122904502128121167
3071541 236 18189315936395666091
3071541 250 17760672633940535183
5902787 121 17829882492746875067
68419 9 17966971616947826914
6992083 37 17606377879499360658
7364860 26 17261891351626360951
77492 1 17530964687705724810
81228 2 18413108385661265051
88987 49 18408601435843255172

> <PUBCHEM_SHAPE_MULTIPOLES>
283.79
4.29
2.72
1.49
1.39
0.12
0.14
-0.89
-0.02
-2.87
-0.09
2.27
-0.12
0.59

> <PUBCHEM_SHAPE_SELFOVERLAP>
589.751

> <PUBCHEM_SHAPE_VOLUME>
158.9

> <PUBCHEM_COORDINATE_TYPE>
2
5
10

$$$$
62596877
  -OEChem-12051909403D

 22 22  0     0  0  0  0  0  0999 V2000
    2.9461   -0.5714    1.2263 O   0  0  0  0  0  0  0  0  0  0  0  0
   -1.4288    0.1882   -0.2452 N   0  0  0  0  0  0  0  0  0  0  0  0
   -1.0989    1.0728    0.7114 N   0  0  0  0  0  0  0  0  0  0  0  0
    0.7362    0.3823   -0.4605 C   0  0  0  0  0  0  0  0  0  0  0  0
    2.1359    0.2528   -0.8961 C   0  0  0  0  0  0  0  0  0  0  0  0
   -0.3658   -0.2560   -0.9752 C   0  0  0  0  0  0  0  0  0  0  0  0
   -2.8076   -0.2017   -0.4166 C   0  0  0  0  0  0  0  0  0  0  0  0
    0.2249    1.1873    0.5749 C   0  0  0  0  0  0  0  0  0  0  0  0
    2.9096   -0.8597   -0.1656 C   0  0  0  0  0  0  0  0  0  0  0  0
   -3.2516   -1.1946    0.6466 C   0  0  0  0  0  0  0  0  0  0  0  0
    2.6489    1.2080   -0.7254 H   0  0  0  0  0  0  0  0  0  0  0  0
    2.1753    0.0608   -1.9751 H   0  0  0  0  0  0  0  0  0  0  0  0
   -0.4780   -0.9717   -1.7784 H   0  0  0  0  0  0  0  0  0  0  0  0
   -3.4183    0.7071   -0.3789 H   0  0  0  0  0  0  0  0  0  0  0  0
   -2.9180   -0.6389   -1.4149 H   0  0  0  0  0  0  0  0  0  0  0  0
    0.7594    1.8535    1.2372 H   0  0  0  0  0  0  0  0  0  0  0  0
    2.4267   -1.8320   -0.3083 H   0  0  0  0  0  0  0  0  0  0  0  0
    3.9369   -0.9114   -0.5394 H   0  0  0  0  0  0  0  0  0  0  0  0
   -2.6375   -2.1011    0.6194 H   0  0  0  0  0  0  0  0  0  0  0  0
   -4.2948   -1.4827    0.4839 H   0  0  0  0  0  0  0  0  0  0  0  0
   -3.1695   -0.7651    1.6506 H   0  0  0  0  0  0  0  0  0  0  0  0
    3.4431   -1.2900    1.6530 H   0  0  0  0  0  0  0  0  0  0  0  0
  1  9  1  0  0  0  0
  1 22  1  0  0  0  0
  2  3  1  0  0  0  0
  2  6  1  0  0  0  0
  2  7  1  0  0  0  0
  3  8  2  0  0  0  0
  4  5  1  0  0  0  0
  4  6  2  0  0  0  0
  4  8  1  0  0  0  0
  5  9  1  0  0  0  0
  5 11  1  0  0  0  0
  5 12  1  0  0  0  0
  6 13  1  0  0  0  0
  7 10  1  0  0  0  0
  7 14  1  0  0  0  0
  7 15  1  0  0  0  0
  8 16  1  0  0  0  0
  9 17  1  0  0  0  0
  9 18  1  0  0  0  0
 10 19  1  0  0  0  0
 10 20  1  0  0  0  0
 10 21  1  0  0  0  0
M  END
> <PUBCHEM_COMPOUND_CID>
62596877

> <PUBCHEM_CONFORMER_RMSD>
0.6

> <PUBCHEM_CONFORMER_DIVERSEORDER>
1
7
14
2
11
15
10
16
3
5
9
12
4
8
13
6

> <PUBCHEM_MMFF94_PARTIAL_CHARGES>
12
1 -0.68
13 0.15
16 0.15
2 0.31
22 0.4
3 -0.71
4 -0.18
5 0.18
6 -0.3
7 0.26
8 0.14
9 0.28

> <PUBCHEM_EFFECTIVE_ROTOR_COUNT>
3

> <PUBCHEM_PHARMACOPHORE_FEATURES>
4
1 1 acceptor
1 1 donor
1 3 acceptor
5 2 3 4 6 8 rings

> <PUBCHEM_HEAVY_ATOM_COUNT>
10

> <PUBCHEM_ATOM_DEF_STEREO_COUNT>
0

> <PUBCHEM_ATOM_UDEF_STEREO_COUNT>
0

> <PUBCHEM_BOND_DEF_STEREO_COUNT>
0

> <PUBCHEM_BOND_UDEF_STEREO_COUNT>
0

> <PUBCHEM_ISOTOPIC_ATOM_COUNT>
0

> <PUBCHEM_COMPONENT_COUNT>
1

> <PUBCHEM_CACTVS_TAUTO_COUNT>
1

> <PUBCHEM_CONFORMER_ID>
03BB270D00000001

> <PUBCHEM_MMFF94_ENERGY>
2.7847

> <PUBCHEM_FEATURE_SELFOVERLAP>
20.297

> <PUBCHEM_SHAPE_FINGERPRINT>
10219947 1 17203610393249609101
10857977 72 17846779598220667581
11769659 78 17967529107834512131
12897270 3 13262395561633612727
12932764 1 17676779698819237940
14390081 3 10231754478868824631
15310529 11 18040718107805803341
16945 1 17632580461069746437
18186145 218 12901544641548743055
20281407 28 18272092707784022471
21293036 1 12829494770035988983
21501925 9 17632006572193311775
2748010 2 17344083878613469021
29004967 10 17989215858032246509
369184 2 16844999122563286932
528862 383 18127405876693777208

> <PUBCHEM_SHAPE_MULTIPOLES>
189.96
5.02
1.13
1.06
0.64
0.09
-0.08
-2.3
-0.92
0.15
-0.24
-0.31
-0.07
-0.03

> <PUBCHEM_SHAPE_SELFOVERLAP>
376.467

> <PUBCHEM_SHAPE_VOLUME>
115.6

> <PUBCHEM_COORDINATE_TYPE>
2
5
10

$$$$
831914
  -OEChem-12051909403D

 31 32  0     0  0  0  0  0  0999 V2000
   -0.7685   -0.0346   -1.9691 O   0  0  0  0  0  0  0  0  0  0  0  0
    3.5832    0.3028    0.0857 N   0  0  0  0  0  0  0  0  0  0  0  0
   -0.4218   -1.4239   -0.1453 N   0  0  0  0  0  0  0  0  0  0  0  0
    3.6848   -0.4225    1.2126 N   0  0  0  0  0  0  0  0  0  0  0  0
   -4.2746   -0.4257    1.1827 N   0  0  0  0  0  0  0  0  0  0  0  0
    2.0072   -1.1497   -0.1022 C   0  0  0  0  0  0  0  0  0  0  0  0
    0.8414   -1.9694   -0.5878 C   0  0  0  0  0  0  0  0  0  0  0  0
    2.5781   -0.1032   -0.7422 C   0  0  0  0  0  0  0  0  0  0  0  0
    4.4953    1.3966   -0.1475 C   0  0  0  0  0  0  0  0  0  0  0  0
    2.7035   -1.3196    1.0854 C   0  0  0  0  0  0  0  0  0  0  0  0
    3.9712    2.7103    0.4064 C   0  0  0  0  0  0  0  0  0  0  0  0
   -1.1564   -0.4791   -0.8729 C   0  0  0  0  0  0  0  0  0  0  0  0
   -2.3970   -0.0090   -0.2822 C   0  0  0  0  0  0  0  0  0  0  0  0
   -2.9028    1.2505   -0.5842 C   0  0  0  0  0  0  0  0  0  0  0  0
   -3.1144   -0.8015    0.5993 C   0  0  0  0  0  0  0  0  0  0  0  0
   -4.0938    1.6729   -0.0037 C   0  0  0  0  0  0  0  0  0  0  0  0
   -4.7353    0.8050    0.8651 C   0  0  0  0  0  0  0  0  0  0  0  0
    0.8491   -2.0250   -1.6822 H   0  0  0  0  0  0  0  0  0  0  0  0
    0.9104   -2.9910   -0.1987 H   0  0  0  0  0  0  0  0  0  0  0  0
    2.3740    0.3857   -1.6850 H   0  0  0  0  0  0  0  0  0  0  0  0
    5.4566    1.1399    0.3113 H   0  0  0  0  0  0  0  0  0  0  0  0
    4.6541    1.4752   -1.2287 H   0  0  0  0  0  0  0  0  0  0  0  0
    2.5557   -2.0456    1.8719 H   0  0  0  0  0  0  0  0  0  0  0  0
   -0.7367   -1.7089    0.7761 H   0  0  0  0  0  0  0  0  0  0  0  0
    3.0156    2.9805   -0.0554 H   0  0  0  0  0  0  0  0  0  0  0  0
    4.6849    3.5167    0.2117 H   0  0  0  0  0  0  0  0  0  0  0  0
    3.8129    2.6471    1.4882 H   0  0  0  0  0  0  0  0  0  0  0  0
   -2.3818    1.9175   -1.2658 H   0  0  0  0  0  0  0  0  0  0  0  0
   -2.8075   -1.8068    0.8683 H   0  0  0  0  0  0  0  0  0  0  0  0
   -4.5063    2.6509   -0.2236 H   0  0  0  0  0  0  0  0  0  0  0  0
   -5.6671    1.0869    1.3442 H   0  0  0  0  0  0  0  0  0  0  0  0
  1 12  2  0  0  0  0
  2  4  1  0  0  0  0
  2  8  1  0  0  0  0
  2  9  1  0  0  0  0
  3  7  1  0  0  0  0
  3 12  1  0  0  0  0
  3 24  1  0  0  0  0
  4 10  2  0  0  0  0
  5 15  1  0  0  0  0
  5 17  2  0  0  0  0
  6  7  1  0  0  0  0
  6  8  2  0  0  0  0
  6 10  1  0  0  0  0
  7 18  1  0  0  0  0
  7 19  1  0  0  0  0
  8 20  1  0  0  0  0
  9 11  1  0  0  0  0
  9 21  1  0  0  0  0
  9 22  1  0  0  0  0
 10 23  1  0  0  0  0
 11 25  1  0  0  0  0
 11 26  1  0  0  0  0
 11 27  1  0  0  0  0
 12 13  1  0  0  0  0
 13 14  1  0  0  0  0
 13 15  2  0  0  0  0
 14 16  2  0  0  0  0
 14 28  1  0  0  0  0
 15 29  1  0  0  0  0
 16 17  1  0  0  0  0
 16 30  1  0  0  0  0
 17 31  1  0  0  0  0
M  END
> <PUBCHEM_COMPOUND_CID>
831914

> <PUBCHEM_CONFORMER_RMSD>
0.6

> <PUBCHEM_CONFORMER_DIVERSEORDER>
1
54
45
97
25
17
86
96
12
74
61
30
79
82
33
41
35
20
66
99
78
85
42
83
37
11
16
71
80
91
67
58
34
5
26
90
60
6
75
100
19
56
46
43
7
88
21
47
87
64
10
29
84
8
93
92
62
9
22
44
77
3
53
31
63
70
57
65
38
72
50
24
36
98
14
32
55
2
59
81
4
27
69
39
52
15
68
94
51
40
49
89
18
28
73
23
13
95
48
76

> <PUBCHEM_MMFF94_PARTIAL_CHARGES>
23
1 -0.57
10 0.14
12 0.54
13 0.09
14 -0.15
15 0.16
16 -0.15
17 0.16
2 0.31
20 0.15
23 0.15
24 0.37
28 0.15
29 0.15
3 -0.73
30 0.15
31 0.15
4 -0.71
5 -0.62
6 -0.18
7 0.48
8 -0.3
9 0.26

> <PUBCHEM_EFFECTIVE_ROTOR_COUNT>
5

> <PUBCHEM_PHARMACOPHORE_FEATURES>
6
1 1 acceptor
1 3 donor
1 4 acceptor
1 5 acceptor
5 2 4 6 8 10 rings
6 5 13 14 15 16 17 rings

> <PUBCHEM_HEAVY_ATOM_COUNT>
17

> <PUBCHEM_ATOM_DEF_STEREO_COUNT>
0

> <PUBCHEM_ATOM_UDEF_STEREO_COUNT>
0

> <PUBCHEM_BOND_DEF_STEREO_COUNT>
0

> <PUBCHEM_BOND_UDEF_STEREO_COUNT>
0

> <PUBCHEM_ISOTOPIC_ATOM_COUNT>
0

> <PUBCHEM_COMPONENT_COUNT>
1

> <PUBCHEM_CACTVS_TAUTO_COUNT>
2

> <PUBCHEM_CONFORMER_ID>
000CB1AA00000001

> <PUBCHEM_MMFF94_ENERGY>
27.3879

> <PUBCHEM_FEATURE_SELFOVERLAP>
30.446

> <PUBCHEM_SHAPE_FINGERPRINT>
10498660 4 16630518527446556737
10681291 71 18341337785696456620
10968037 57 11242786177128431520
11045977 3 18113622265741364515
11132069 177 17095525076198525463
11137873 295 9871749126327946349
12251169 10 17821734935422414599
12363563 72 11458425708734171782
12403259 118 18340473487651803393
12410352 35 12107791825780079889
12788726 201 14214973145952391422
12824470 246 11747204750020522612
12892183 10 17967536765803074145
13897977 13 18409729582028491165
14123255 52 18342175604834817084
14123260 362 17203612588141447105
1420 369 11963384137683562392
14251764 38 17981039718065824797
14341114 328 17313392261496682700
14576447 43 9007055794976561784
14787075 74 18342175622252310107
14848178 5 10737551848296889864
15342168 16 18342458157542351141
15352361 1 8718559306614341320
1798214 20 8430315731764047104
18186145 218 14117796907935289855
18785283 64 18342179908588025854
193927 3 12324244918860246024
19784866 240 8142096372335331368
204376 136 18273496758611107479
20645477 70 10303808787494011524
21065199 12 18040436551419840627
21250096 35 10881396547563136476
21503847 285 18412548687172062580
21652331 79 18410573998121236281
21756936 100 18197775703804203412
21864079 5 18342450474157328612
22646028 28 10881399820354531212
22854114 59 18410014308343112395
22959321 60 18260834799621361163
23227448 37 18199749309294656581
23253445 4 17603589646812652205
23403322 49 8718830885854175897
23559900 14 18122347870061575431
251288 83 15430040976301796398
32948 21 10807939236906272619
38570 142 17242758595879815756
4463277 69 7997704099050675464
474 4 18272368659200603854
49207404 50 18261119560121686683
4921388 177 14476950225396524069
4990 188 12103840133918986791
5104073 3 18187370883288771081
5161694 15 12607404390323739187
633830 44 18130509639120718303
76465 3 10953737824148715209
7808743 9 18197216060764817664
88748 71 9655305864059051412
90316 7 16588589691241047709
960060 61 10879988068888767232
9882013 296 17967537891021390511

> <PUBCHEM_SHAPE_MULTIPOLES>
324.06
10.34
2.11
1.2
1.43
0.89
0.13
5.78
-3.22
-1.77
-0.12
0.21
-0.17
0.07

> <PUBCHEM_SHAPE_SELFOVERLAP>
683.011

> <PUBCHEM_SHAPE_VOLUME>
182.1

> <PUBCHEM_COORDINATE_TYPE>
2
5
10

$$$$
51114235
  -OEChem-12051909403D

 29 30  0     0  0  0  0  0  0999 V2000
    1.5963    1.6662    0.2968 O   0  0  0  0  0  0  0  0  0  0  0  0
    0.5438   -0.2959   -0.4218 N   0  0  0  0  0  0  0  0  0  0  0  0
   -3.0107   -0.0895   -0.2523 N   0  0  0  0  0  0  0  0  0  0  0  0
   -2.7545    1.1465    0.2091 N   0  0  0  0  0  0  0  0  0  0  0  0
    2.9800   -0.1857   -0.4407 C   0  0  0  0  0  0  0  0  0  0  0  0
    4.2690    0.5248    0.0222 C   0  0  0  0  0  0  0  0  0  0  0  0
    3.3904   -1.3597    0.4725 C   0  0  0  0  0  0  0  0  0  0  0  0
    4.8467   -0.8767    0.3097 C   0  0  0  0  0  0  0  0  0  0  0  0
    1.6383    0.5130   -0.1400 C   0  0  0  0  0  0  0  0  0  0  0  0
   -0.8291    0.0142   -0.2688 C   0  0  0  0  0  0  0  0  0  0  0  0
   -1.8915   -0.8086   -0.5532 C   0  0  0  0  0  0  0  0  0  0  0  0
   -1.4201    1.2040    0.1968 C   0  0  0  0  0  0  0  0  0  0  0  0
   -4.3767   -0.5358   -0.3863 C   0  0  0  0  0  0  0  0  0  0  0  0
   -4.9819   -0.9169    0.9561 C   0  0  0  0  0  0  0  0  0  0  0  0
    3.0419   -0.4584   -1.5059 H   0  0  0  0  0  0  0  0  0  0  0  0
    3.0129   -1.2893    1.4993 H   0  0  0  0  0  0  0  0  0  0  0  0
    3.1821   -2.3601    0.0843 H   0  0  0  0  0  0  0  0  0  0  0  0
    4.7957    1.1009   -0.7431 H   0  0  0  0  0  0  0  0  0  0  0  0
    4.1592    1.1434    0.9206 H   0  0  0  0  0  0  0  0  0  0  0  0
    5.4779   -0.9590    1.1978 H   0  0  0  0  0  0  0  0  0  0  0  0
    5.3680   -1.3239   -0.5445 H   0  0  0  0  0  0  0  0  0  0  0  0
    0.7224   -1.2306   -0.7817 H   0  0  0  0  0  0  0  0  0  0  0  0
   -1.9426   -1.8199   -0.9336 H   0  0  0  0  0  0  0  0  0  0  0  0
   -0.9481    2.1167    0.5303 H   0  0  0  0  0  0  0  0  0  0  0  0
   -4.3912   -1.3937   -1.0671 H   0  0  0  0  0  0  0  0  0  0  0  0
   -4.9476    0.2736   -0.8543 H   0  0  0  0  0  0  0  0  0  0  0  0
   -4.9965   -0.0635    1.6423 H   0  0  0  0  0  0  0  0  0  0  0  0
   -6.0112   -1.2640    0.8228 H   0  0  0  0  0  0  0  0  0  0  0  0
   -4.4087   -1.7193    1.4326 H   0  0  0  0  0  0  0  0  0  0  0  0
  1  9  2  0  0  0  0
  2  9  1  0  0  0  0
  2 10  1  0  0  0  0
  2 22  1  0  0  0  0
  3  4  1  0  0  0  0
  3 11  1  0  0  0  0
  3 13  1  0  0  0  0
  4 12  2  0  0  0  0
  5  6  1  0  0  0  0
  5  7  1  0  0  0  0
  5  9  1  0  0  0  0
  5 15  1  0  0  0  0
  6  8  1  0  0  0  0
  6 18  1  0  0  0  0
  6 19  1  0  0  0  0
  7  8  1  0  0  0  0
  7 16  1  0  0  0  0
  7 17  1  0  0  0  0
  8 20  1  0  0  0  0
  8 21  1  0  0  0  0
 10 11  2  0  0  0  0
 10 12  1  0  0  0  0
 11 23  1  0  0  0  0
 12 24  1  0  0  0  0
 13 14  1  0  0  0  0
 13 25  1  0  0  0  0
 13 26  1  0  0  0  0
 14 27  1  0  0  0  0
 14 28  1  0  0  0  0
 14 29  1  0  0  0  0
M  END
> <PUBCHEM_COMPOUND_CID>
51114235

> <PUBCHEM_CONFORMER_RMSD>
0.6

> <PUBCHEM_CONFORMER_DIVERSEORDER>
1
11
23
18
24
35
7
13
10
27
28
22
16
15
17
33
9
32
4
34
29
8
3
26
30
2
12
14
25
31
21
20
5
6
19

> <PUBCHEM_MMFF94_PARTIAL_CHARGES>
13
1 -0.57
10 0.06
11 -0.3
12 0.14
13 0.26
2 -0.49
22 0.37
23 0.15
24 0.15
3 0.31
4 -0.71
5 0.05
9 0.58

> <PUBCHEM_EFFECTIVE_ROTOR_COUNT>
4.8

> <PUBCHEM_PHARMACOPHORE_FEATURES>
5
1 1 acceptor
1 2 donor
1 4 acceptor
4 5 6 7 8 rings
5 3 4 10 11 12 rings

> <PUBCHEM_HEAVY_ATOM_COUNT>
14

> <PUBCHEM_ATOM_DEF_STEREO_COUNT>
0

> <PUBCHEM_ATOM_UDEF_STEREO_COUNT>
0

> <PUBCHEM_BOND_DEF_STEREO_COUNT>
0

> <PUBCHEM_BOND_UDEF_STEREO_COUNT>
0

> <PUBCHEM_ISOTOPIC_ATOM_COUNT>
0

> <PUBCHEM_COMPONENT_COUNT>
1

> <PUBCHEM_CACTVS_TAUTO_COUNT>
3

> <PUBCHEM_CONFORMER_ID>
030BF0FB00000001

> <PUBCHEM_MMFF94_ENERGY>
18.7853

> <PUBCHEM_FEATURE_SELFOVERLAP>
25.371

> <PUBCHEM_SHAPE_FINGERPRINT>
11062470 55 11815895660670508630
12032990 46 18334296491730728341
12251169 10 18273213114221887390
13690532 89 18335137591897276327
13760787 5 18340767143551384981
14123238 8 18131632296205828742
14144814 61 18341611486613250980
14251718 22 17167866395538526878
14252887 29 18060143111552516494
14455015 7 18113905961379989907
14911166 2 11963390765018319647
14993402 34 14129060335209761947
15375462 189 18410847751147435154
17834072 33 17967819387604702758
17834076 25 14979958077451736798
18522853 276 18202001027467111312
187816 3 13406792233845787215
200 152 18261109677681318443
20279233 1 15357699673846050712
20645477 56 11887959848016089931
20645477 70 18041277682516686650
21119208 17 8286199461519904422
21267235 1 18412270519309854254
21501925 9 18342452643094538628
22485316 2 17894625937814982958
231179 274 11240004442621415794
23402539 116 18059848463910901389
23559900 14 18115024220228730865
26918003 58 18334576854363786899
42 15 18410012126130350518
4990 188 15430034353040245778
5104073 3 18340202999259543256
5374978 207 18272929440485697800
542803 24 15554448513334027586

> <PUBCHEM_SHAPE_MULTIPOLES>
267.3
10.57
1.32
0.77
1.01
0.18
-0.04
-3.53
-1.66
-0.24
-0.2
0.31
-0.11
-0.06

> <PUBCHEM_SHAPE_SELFOVERLAP>
547.639

> <PUBCHEM_SHAPE_VOLUME>
157.2

> <PUBCHEM_COORDINATE_TYPE>
2
5
10

$$$$
51078639
  -OEChem-12051909403D

 32 33  0     0  0  0  0  0  0999 V2000
    1.4198    1.3747    0.4355 O   0  0  0  0  0  0  0  0  0  0  0  0
    0.1997   -0.3853   -0.5394 N   0  0  0  0  0  0  0  0  0  0  0  0
   -3.3289    0.0055   -0.2256 N   0  0  0  0  0  0  0  0  0  0  0  0
   -2.9832    1.1384    0.4093 N   0  0  0  0  0  0  0  0  0  0  0  0
    2.5803   -0.4091   -0.6146 C   0  0  0  0  0  0  0  0  0  0  0  0
    3.0707   -1.3514    0.4906 C   0  0  0  0  0  0  0  0  0  0  0  0
    3.7189    0.5796   -0.8702 C   0  0  0  0  0  0  0  0  0  0  0  0
    4.5137   -0.9470    0.7727 C   0  0  0  0  0  0  0  0  0  0  0  0
    4.5692    0.5211    0.3907 C   0  0  0  0  0  0  0  0  0  0  0  0
    1.3437    0.3118   -0.1720 C   0  0  0  0  0  0  0  0  0  0  0  0
   -1.1459   -0.0206   -0.2968 C   0  0  0  0  0  0  0  0  0  0  0  0
   -2.2652   -0.7248   -0.6681 C   0  0  0  0  0  0  0  0  0  0  0  0
   -1.6486    1.1170    0.3627 C   0  0  0  0  0  0  0  0  0  0  0  0
   -4.7233   -0.3322   -0.3814 C   0  0  0  0  0  0  0  0  0  0  0  0
   -5.3210   -0.8778    0.9065 C   0  0  0  0  0  0  0  0  0  0  0  0
    2.3751   -0.9632   -1.5386 H   0  0  0  0  0  0  0  0  0  0  0  0
    4.3172    0.2284   -1.7209 H   0  0  0  0  0  0  0  0  0  0  0  0
    3.3961    1.5994   -1.1017 H   0  0  0  0  0  0  0  0  0  0  0  0
    2.4704   -1.2575    1.4037 H   0  0  0  0  0  0  0  0  0  0  0  0
    3.0170   -2.3993    0.1761 H   0  0  0  0  0  0  0  0  0  0  0  0
    4.7962   -1.1184    1.8154 H   0  0  0  0  0  0  0  0  0  0  0  0
    4.1283    1.1386    1.1816 H   0  0  0  0  0  0  0  0  0  0  0  0
    5.5924    0.8661    0.2167 H   0  0  0  0  0  0  0  0  0  0  0  0
    5.1945   -1.5268    0.1379 H   0  0  0  0  0  0  0  0  0  0  0  0
    0.3046   -1.2669   -1.0362 H   0  0  0  0  0  0  0  0  0  0  0  0
   -2.3899   -1.6609   -1.1956 H   0  0  0  0  0  0  0  0  0  0  0  0
   -1.1104    1.9374    0.8150 H   0  0  0  0  0  0  0  0  0  0  0  0
   -4.8085   -1.0730   -1.1837 H   0  0  0  0  0  0  0  0  0  0  0  0
   -5.2517    0.5723   -0.7024 H   0  0  0  0  0  0  0  0  0  0  0  0
   -5.2650   -0.1405    1.7143 H   0  0  0  0  0  0  0  0  0  0  0  0
   -6.3732   -1.1379    0.7555 H   0  0  0  0  0  0  0  0  0  0  0  0
   -4.7898   -1.7768    1.2369 H   0  0  0  0  0  0  0  0  0  0  0  0
  1 10  2  0  0  0  0
  2 10  1  0  0  0  0
  2 11  1  0  0  0  0
  2 25  1  0  0  0  0
  3  4  1  0  0  0  0
  3 12  1  0  0  0  0
  3 14  1  0  0  0  0
  4 13  2  0  0  0  0
  5  6  1  0  0  0  0
  5  7  1  0  0  0  0
  5 10  1  0  0  0  0
  5 16  1  0  0  0  0
  6  8  1  0  0  0  0
  6 19  1  0  0  0  0
  6 20  1  0  0  0  0
  7  9  1  0  0  0  0
  7 17  1  0  0  0  0
  7 18  1  0  0  0  0
  8  9  1  0  0  0  0
  8 21  1  0  0  0  0
  8 24  1  0  0  0  0
  9 22  1  0  0  0  0
  9 23  1  0  0  0  0
 11 12  2  0  0  0  0
 11 13  1  0  0  0  0
 12 26  1  0  0  0  0
 13 27  1  0  0  0  0
 14 15  1  0  0  0  0
 14 28  1  0  0  0  0
 14 29  1  0  0  0  0
 15 30  1  0  0  0  0
 15 31  1  0  0  0  0
 15 32  1  0  0  0  0
M  END
> <PUBCHEM_COMPOUND_CID>
51078639

> <PUBCHEM_CONFORMER_RMSD>
0.6

> <PUBCHEM_CONFORMER_DIVERSEORDER>
1
35
27
23
25
11
26
14
31
36
7
21
28
33
8
12
19
37
24
30
10
34
3
20
13
32
9
5
22
18
16
29
6
15
2
17
4

> <PUBCHEM_MMFF94_PARTIAL_CHARGES>
13
1 -0.57
10 0.57
11 0.06
12 -0.3
13 0.14
14 0.26
2 -0.49
25 0.37
26 0.15
27 0.15
3 0.31
4 -0.71
5 0.06

> <PUBCHEM_EFFECTIVE_ROTOR_COUNT>
5

> <PUBCHEM_PHARMACOPHORE_FEATURES>
5
1 1 acceptor
1 2 donor
1 4 acceptor
5 3 4 11 12 13 rings
5 5 6 7 8 9 rings

> <PUBCHEM_HEAVY_ATOM_COUNT>
15

> <PUBCHEM_ATOM_DEF_STEREO_COUNT>
0

> <PUBCHEM_ATOM_UDEF_STEREO_COUNT>
0

> <PUBCHEM_BOND_DEF_STEREO_COUNT>
0

> <PUBCHEM_BOND_UDEF_STEREO_COUNT>
0

> <PUBCHEM_ISOTOPIC_ATOM_COUNT>
0

> <PUBCHEM_COMPONENT_COUNT>
1

> <PUBCHEM_CACTVS_TAUTO_COUNT>
3

> <PUBCHEM_CONFORMER_ID>
030B65EF00000001

> <PUBCHEM_MMFF94_ENERGY>
18.74

> <PUBCHEM_FEATURE_SELFOVERLAP>
25.371

> <PUBCHEM_SHAPE_FINGERPRINT>
11287383 113 17240485844265658437
12251169 10 18273493489686924791
13167823 11 18113616781168692043
13533116 47 18335416842297654066
13690532 89 18186238428971625127
14123238 8 17989486329218348639
14144814 61 18271806796095409092
14252887 29 17917436401966270982
15242439 84 12612754613925550774
15375462 189 18411409601473164666
17834072 33 17967818287792407486
17834076 25 15267342929103653518
18522853 276 18131068233856046745
200 152 16370724842283701477
20279233 1 15574717984506657472
20645477 56 16630524020804842417
20645477 70 17095518466455022706
21119208 17 8286199457045556606
21267235 1 18412833464931346046
22485316 2 17748824111597161967
22646028 1 18410570691175409295
22854114 59 16774078466297718199
23402539 116 18131060537865281941
23557571 272 17203062806368351412
26918003 58 18334012804946184595
3060560 45 8358257068854165392
4047638 21 14117798024948390918
42 15 18335701624187737431
449060 50 16271919424682158728
474 4 17970071252228643044
4990 188 15647051555746963779
5104073 3 18341049610074691361
5374978 207 18272367581432831624
542803 24 14979959176773454067
573450 72 18339354167550397257

> <PUBCHEM_SHAPE_MULTIPOLES>
287.88
11.27
1.21
0.9
4.71
0
-0.01
2.47
1.84
-0.31
0.23
-0.05
0.06
-0.29

> <PUBCHEM_SHAPE_SELFOVERLAP>
594.38

> <PUBCHEM_SHAPE_VOLUME>
167.9

> <PUBCHEM_COORDINATE_TYPE>
2
5
10

$$$$
53950134
  -OEChem-12051909403D

 18 18  0     0  0  0  0  0  0999 V2000
   -0.9669   -1.6337   -0.1642 O   0  0  0  0  0  0  0  0  0  0  0  0
   -1.4923    0.6189   -0.3426 N   0  0  0  0  0  0  0  0  0  0  0  0
    1.2333    1.1526   -0.0605 N   0  0  0  0  0  0  0  0  0  0  0  0
    2.5570    0.9883    0.0952 N   0  0  0  0  0  0  0  0  0  0  0  0
    3.0393   -0.2600    0.2046 N   0  0  0  0  0  0  0  0  0  0  0  0
   -2.9131    0.4549   -0.4707 C   0  0  0  0  0  0  0  0  0  0  0  0
   -0.6212   -0.4556   -0.1974 C   0  0  0  0  0  0  0  0  0  0  0  0
    0.8177   -0.1170   -0.0504 C   0  0  0  0  0  0  0  0  0  0  0  0
   -3.5687    0.2269    0.8756 C   0  0  0  0  0  0  0  0  0  0  0  0
    1.9148   -0.9751    0.1106 C   0  0  0  0  0  0  0  0  0  0  0  0
   -3.3099    1.3617   -0.9376 H   0  0  0  0  0  0  0  0  0  0  0  0
   -3.1159   -0.3917   -1.1353 H   0  0  0  0  0  0  0  0  0  0  0  0
   -1.1166    1.5630   -0.3457 H   0  0  0  0  0  0  0  0  0  0  0  0
   -3.1950   -0.6850    1.3529 H   0  0  0  0  0  0  0  0  0  0  0  0
   -3.3694    1.0627    1.5547 H   0  0  0  0  0  0  0  0  0  0  0  0
   -4.6526    0.1305    0.7603 H   0  0  0  0  0  0  0  0  0  0  0  0
    1.9569   -2.0530    0.1630 H   0  0  0  0  0  0  0  0  0  0  0  0
    3.1781    1.7889    0.1292 H   0  0  0  0  0  0  0  0  0  0  0  0
  1  7  2  0  0  0  0
  2  6  1  0  0  0  0
  2  7  1  0  0  0  0
  2 13  1  0  0  0  0
  3  4  1  0  0  0  0
  3  8  2  0  0  0  0
  4  5  1  0  0  0  0
  4 18  1  0  0  0  0
  5 10  2  0  0  0  0
  6  9  1  0  0  0  0
  6 11  1  0  0  0  0
  6 12  1  0  0  0  0
  7  8  1  0  0  0  0
  8 10  1  0  0  0  0
  9 14  1  0  0  0  0
  9 15  1  0  0  0  0
  9 16  1  0  0  0  0
 10 17  1  0  0  0  0
M  END
> <PUBCHEM_COMPOUND_CID>
53950134

> <PUBCHEM_CONFORMER_RMSD>
0.6

> <PUBCHEM_CONFORMER_DIVERSEORDER>
1
7
5
4
2
6
8
3

> <PUBCHEM_MMFF94_PARTIAL_CHARGES>
12
1 -0.57
10 0.14
13 0.37
17 0.15
18 0.27
2 -0.73
3 -0.71
4 0.57
5 -0.71
6 0.3
7 0.72
8 0.2

> <PUBCHEM_EFFECTIVE_ROTOR_COUNT>
3

> <PUBCHEM_PHARMACOPHORE_FEATURES>
5
1 1 acceptor
1 2 donor
1 3 acceptor
1 5 acceptor
5 3 4 5 8 10 rings

> <PUBCHEM_HEAVY_ATOM_COUNT>
10

> <PUBCHEM_ATOM_DEF_STEREO_COUNT>
0

> <PUBCHEM_ATOM_UDEF_STEREO_COUNT>
0

> <PUBCHEM_BOND_DEF_STEREO_COUNT>
0

> <PUBCHEM_BOND_UDEF_STEREO_COUNT>
0

> <PUBCHEM_ISOTOPIC_ATOM_COUNT>
0

> <PUBCHEM_COMPONENT_COUNT>
1

> <PUBCHEM_CACTVS_TAUTO_COUNT>
9

> <PUBCHEM_CONFORMER_ID>
033736B600000001

> <PUBCHEM_MMFF94_ENERGY>
3.089

> <PUBCHEM_FEATURE_SELFOVERLAP>
25.421

> <PUBCHEM_SHAPE_FINGERPRINT>
10219947 1 18408605833895067013
10857977 72 17167865274857998285
11062470 55 13110958721401981443
12932764 1 18113892758391857543
13380535 21 18337121171219714694
14325111 11 18410854352390609357
17844478 74 17967536744381271053
20653085 51 15410900682085480755
20871998 22 17910393888420462358
21040471 1 18410569617454645262
23235685 24 18272647935159294733
3248919 1 17632855313454715519

> <PUBCHEM_SHAPE_MULTIPOLES>
180
5.29
1.19
0.71
2.08
0.19
0.06
-0.8
0.93
-0.3
-0.05
0.4
-0.01
0.01

> <PUBCHEM_SHAPE_SELFOVERLAP>
362.275

> <PUBCHEM_SHAPE_VOLUME>
106.2

> <PUBCHEM_COORDINATE_TYPE>
2
5
10

$$$$
142179
  -OEChem-12051909403D

 18 18  0     0  0  0  0  0  0999 V2000
   -1.4940    0.3027   -0.0003 O   0  0  0  0  0  0  0  0  0  0  0  0
   -0.8588   -1.9100   -0.0002 O   0  0  0  0  0  0  0  0  0  0  0  0
    2.9683   -0.0411    0.0002 N   0  0  0  0  0  0  0  0  0  0  0  0
    2.5708    1.2427   -0.0002 N   0  0  0  0  0  0  0  0  0  0  0  0
    0.7889   -0.1865    0.0002 C   0  0  0  0  0  0  0  0  0  0  0  0
   -2.8727   -0.0833    0.0002 C   0  0  0  0  0  0  0  0  0  0  0  0
   -0.5473   -0.6975   -0.0005 C   0  0  0  0  0  0  0  0  0  0  0  0
    1.9396   -0.9366    0.0004 C   0  0  0  0  0  0  0  0  0  0  0  0
    1.2384    1.1474   -0.0001 C   0  0  0  0  0  0  0  0  0  0  0  0
   -3.7333    1.1622    0.0003 C   0  0  0  0  0  0  0  0  0  0  0  0
   -3.0821   -0.6810   -0.8935 H   0  0  0  0  0  0  0  0  0  0  0  0
   -3.0815   -0.6806    0.8943 H   0  0  0  0  0  0  0  0  0  0  0  0
    2.1197   -2.0025    0.0006 H   0  0  0  0  0  0  0  0  0  0  0  0
   -4.7958    0.9035    0.0007 H   0  0  0  0  0  0  0  0  0  0  0  0
   -3.5189    1.7785    0.8796 H   0  0  0  0  0  0  0  0  0  0  0  0
   -3.5194    1.7783   -0.8793 H   0  0  0  0  0  0  0  0  0  0  0  0
    0.6569    2.0586   -0.0006 H   0  0  0  0  0  0  0  0  0  0  0  0
    3.9618   -0.2357    0.0002 H   0  0  0  0  0  0  0  0  0  0  0  0
  1  6  1  0  0  0  0
  1  7  1  0  0  0  0
  2  7  2  0  0  0  0
  3  4  1  0  0  0  0
  3  8  1  0  0  0  0
  3 18  1  0  0  0  0
  4  9  2  0  0  0  0
  5  7  1  0  0  0  0
  5  8  2  0  0  0  0
  5  9  1  0  0  0  0
  6 10  1  0  0  0  0
  6 11  1  0  0  0  0
  6 12  1  0  0  0  0
  8 13  1  0  0  0  0
  9 17  1  0  0  0  0
 10 14  1  0  0  0  0
 10 15  1  0  0  0  0
 10 16  1  0  0  0  0
M  END
> <PUBCHEM_COMPOUND_CID>
142179

> <PUBCHEM_CONFORMER_RMSD>
0.6

> <PUBCHEM_CONFORMER_DIVERSEORDER>
1
6
7
4
2
3
5

> <PUBCHEM_MMFF94_PARTIAL_CHARGES>
12
1 -0.43
13 0.15
17 0.15
18 0.27
2 -0.57
3 0.3
4 -0.71
5 -0.09
6 0.28
7 0.81
8 -0.3
9 0.14

> <PUBCHEM_EFFECTIVE_ROTOR_COUNT>
3

> <PUBCHEM_PHARMACOPHORE_FEATURES>
4
1 2 acceptor
1 3 donor
1 4 acceptor
5 3 4 5 8 9 rings

> <PUBCHEM_HEAVY_ATOM_COUNT>
10

> <PUBCHEM_ATOM_DEF_STEREO_COUNT>
0

> <PUBCHEM_ATOM_UDEF_STEREO_COUNT>
0

> <PUBCHEM_BOND_DEF_STEREO_COUNT>
0

> <PUBCHEM_BOND_UDEF_STEREO_COUNT>
0

> <PUBCHEM_ISOTOPIC_ATOM_COUNT>
0

> <PUBCHEM_COMPONENT_COUNT>
1

> <PUBCHEM_CACTVS_TAUTO_COUNT>
2

> <PUBCHEM_CONFORMER_ID>
00022B6300000001

> <PUBCHEM_MMFF94_ENERGY>
6.6259

> <PUBCHEM_FEATURE_SELFOVERLAP>
20.297

> <PUBCHEM_SHAPE_FINGERPRINT>
11062470 55 14045737119084424307
12932764 1 17417808499882958727
14325111 11 18410855464813467233
14390081 3 18411698794532388913
15775835 57 18410013230258848389
18186145 218 18272093760156511461
20871998 22 17980196379799036554
21028194 46 18411985767045970545
21040471 1 18410856607026965058
23235685 24 18413102857637395853
23402655 69 18271800195095003637

> <PUBCHEM_SHAPE_MULTIPOLES>
184.09
5.3
1.46
0.58
3.27
0.21
0
-1.91
0
-0.03
0
0.03
-0.01
0

> <PUBCHEM_SHAPE_SELFOVERLAP>
374.177

> <PUBCHEM_SHAPE_VOLUME>
108.6

> <PUBCHEM_COORDINATE_TYPE>
2
5
10

$$$$
230138
  -OEChem-12051909403D

 24 24  0     0  0  0  0  0  0999 V2000
    3.1252    0.6352   -0.0547 O   0  0  0  0  0  0  0  0  0  0  0  0
   -1.7568    0.3056    0.0595 O   0  0  0  0  0  0  0  0  0  0  0  0
   -1.1225   -1.8801   -0.1617 O   0  0  0  0  0  0  0  0  0  0  0  0
    0.4702   -0.2407    0.2501 N   0  0  0  0  0  0  0  0  0  0  0  0
    0.8189    1.1635    0.4812 C   0  0  0  0  0  0  0  0  0  0  0  0
    1.5816   -1.1787    0.3903 C   0  0  0  0  0  0  0  0  0  0  0  0
    2.0514    1.5391   -0.3313 C   0  0  0  0  0  0  0  0  0  0  0  0
    2.7786   -0.7036   -0.4212 C   0  0  0  0  0  0  0  0  0  0  0  0
   -0.8293   -0.7017    0.0322 C   0  0  0  0  0  0  0  0  0  0  0  0
   -3.1184   -0.0842   -0.1535 C   0  0  0  0  0  0  0  0  0  0  0  0
   -3.9990    1.1455   -0.0907 C   0  0  0  0  0  0  0  0  0  0  0  0
    1.0293    1.2571    1.5529 H   0  0  0  0  0  0  0  0  0  0  0  0
   -0.0116    1.8311    0.2377 H   0  0  0  0  0  0  0  0  0  0  0  0
    1.2856   -2.1874    0.0871 H   0  0  0  0  0  0  0  0  0  0  0  0
    1.8340   -1.2037    1.4569 H   0  0  0  0  0  0  0  0  0  0  0  0
    1.8389    1.5276   -1.4070 H   0  0  0  0  0  0  0  0  0  0  0  0
    2.3837    2.5475   -0.0661 H   0  0  0  0  0  0  0  0  0  0  0  0
    3.6452   -1.3420   -0.2230 H   0  0  0  0  0  0  0  0  0  0  0  0
    2.5727   -0.7412   -1.4975 H   0  0  0  0  0  0  0  0  0  0  0  0
   -3.2127   -0.5571   -1.1375 H   0  0  0  0  0  0  0  0  0  0  0  0
   -3.4199   -0.7954    0.6235 H   0  0  0  0  0  0  0  0  0  0  0  0
   -5.0487    0.8836   -0.2499 H   0  0  0  0  0  0  0  0  0  0  0  0
   -3.9012    1.6401    0.8812 H   0  0  0  0  0  0  0  0  0  0  0  0
   -3.6972    1.8746   -0.8500 H   0  0  0  0  0  0  0  0  0  0  0  0
  1  7  1  0  0  0  0
  1  8  1  0  0  0  0
  2  9  1  0  0  0  0
  2 10  1  0  0  0  0
  3  9  2  0  0  0  0
  4  5  1  0  0  0  0
  4  6  1  0  0  0  0
  4  9  1  0  0  0  0
  5  7  1  0  0  0  0
  5 12  1  0  0  0  0
  5 13  1  0  0  0  0
  6  8  1  0  0  0  0
  6 14  1  0  0  0  0
  6 15  1  0  0  0  0
  7 16  1  0  0  0  0
  7 17  1  0  0  0  0
  8 18  1  0  0  0  0
  8 19  1  0  0  0  0
 10 11  1  0  0  0  0
 10 20  1  0  0  0  0
 10 21  1  0  0  0  0
 11 22  1  0  0  0  0
 11 23  1  0  0  0  0
 11 24  1  0  0  0  0
M  END
> <PUBCHEM_COMPOUND_CID>
230138

> <PUBCHEM_CONFORMER_RMSD>
0.6

> <PUBCHEM_CONFORMER_DIVERSEORDER>
1
10
6
9
3
5
7
4
8
2

> <PUBCHEM_MMFF94_PARTIAL_CHARGES>
10
1 -0.56
10 0.28
2 -0.43
3 -0.57
4 -0.66
5 0.3
6 0.3
7 0.28
8 0.28
9 0.78

> <PUBCHEM_EFFECTIVE_ROTOR_COUNT>
4.2

> <PUBCHEM_PHARMACOPHORE_FEATURES>
3
1 1 acceptor
1 3 acceptor
6 1 4 5 6 7 8 rings

> <PUBCHEM_HEAVY_ATOM_COUNT>
11

> <PUBCHEM_ATOM_DEF_STEREO_COUNT>
0

> <PUBCHEM_ATOM_UDEF_STEREO_COUNT>
0

> <PUBCHEM_BOND_DEF_STEREO_COUNT>
0

> <PUBCHEM_BOND_UDEF_STEREO_COUNT>
0

> <PUBCHEM_ISOTOPIC_ATOM_COUNT>
0

> <PUBCHEM_COMPONENT_COUNT>
1

> <PUBCHEM_CACTVS_TAUTO_COUNT>
1

> <PUBCHEM_CONFORMER_ID>
000382FA00000001

> <PUBCHEM_MMFF94_ENERGY>
13.6248

> <PUBCHEM_FEATURE_SELFOVERLAP>
15.223

> <PUBCHEM_SHAPE_FINGERPRINT>
10130415 120 18336822001051506826
11062470 55 16558747914496554376
12932764 1 17560235959153567179
13380535 21 18336275646646138051
14325111 11 18410573994189759137
14648413 74 18265616670106291976
14897335 6 18340199786375896736
15775835 57 18408324384661838357
177051 138 9079116661173186937
18186145 218 18340488876688397405
20606313 2 18340204098718390285
20653085 51 18335146426882413657
22485316 2 9223224136031078657
23402655 69 18343015571694624909
23552423 10 18263360463724641638
528886 8 18410852192016771826

> <PUBCHEM_SHAPE_MULTIPOLES>
203.79
5.81
1.62
0.66
4.22
0.07
0.01
-1.68
-0.65
-0.29
-0.03
-0.1
-0.02
-0.06

> <PUBCHEM_SHAPE_SELFOVERLAP>
394.416

> <PUBCHEM_SHAPE_VOLUME>
123.4

> <PUBCHEM_COORDINATE_TYPE>
2
5
10

$$$$
13450481
  -OEChem-12051909403D

 19 19  0     0  0  0  0  0  0999 V2000
    1.1019   -1.8666   -0.0658 O   0  0  0  0  0  0  0  0  0  0  0  0
    1.8014    0.3414    0.0985 N   0  0  0  0  0  0  0  0  0  0  0  0
   -2.7127   -0.2204    0.2104 N   0  0  0  0  0  0  0  0  0  0  0  0
   -2.4427    0.9580   -0.3767 N   0  0  0  0  0  0  0  0  0  0  0  0
   -0.5715   -0.2528   -0.0319 C   0  0  0  0  0  0  0  0  0  0  0  0
    0.8291   -0.6679   -0.0038 C   0  0  0  0  0  0  0  0  0  0  0  0
    3.1154    0.1329   -0.4957 C   0  0  0  0  0  0  0  0  0  0  0  0
    1.6031    1.6364    0.7478 C   0  0  0  0  0  0  0  0  0  0  0  0
   -1.6087   -0.9881    0.4390 C   0  0  0  0  0  0  0  0  0  0  0  0
   -1.1152    0.9271   -0.5219 C   0  0  0  0  0  0  0  0  0  0  0  0
    3.3182    0.9446   -1.2004 H   0  0  0  0  0  0  0  0  0  0  0  0
    3.1608   -0.8204   -1.0291 H   0  0  0  0  0  0  0  0  0  0  0  0
    3.8668    0.1370    0.2990 H   0  0  0  0  0  0  0  0  0  0  0  0
    2.4644    1.8439    1.3904 H   0  0  0  0  0  0  0  0  0  0  0  0
    0.7070    1.6368    1.3724 H   0  0  0  0  0  0  0  0  0  0  0  0
    1.5314    2.4112   -0.0203 H   0  0  0  0  0  0  0  0  0  0  0  0
   -1.6814   -1.9599    0.9064 H   0  0  0  0  0  0  0  0  0  0  0  0
   -0.6344    1.7712   -0.9945 H   0  0  0  0  0  0  0  0  0  0  0  0
   -3.6770   -0.4378    0.4290 H   0  0  0  0  0  0  0  0  0  0  0  0
  1  6  2  0  0  0  0
  2  6  1  0  0  0  0
  2  7  1  0  0  0  0
  2  8  1  0  0  0  0
  3  4  1  0  0  0  0
  3  9  1  0  0  0  0
  3 19  1  0  0  0  0
  4 10  2  0  0  0  0
  5  6  1  0  0  0  0
  5  9  2  0  0  0  0
  5 10  1  0  0  0  0
  7 11  1  0  0  0  0
  7 12  1  0  0  0  0
  7 13  1  0  0  0  0
  8 14  1  0  0  0  0
  8 15  1  0  0  0  0
  8 16  1  0  0  0  0
  9 17  1  0  0  0  0
 10 18  1  0  0  0  0
M  END
> <PUBCHEM_COMPOUND_CID>
13450481

> <PUBCHEM_CONFORMER_RMSD>
0.4

> <PUBCHEM_CONFORMER_DIVERSEORDER>
3
2
1

> <PUBCHEM_MMFF94_PARTIAL_CHARGES>
13
1 -0.57
10 0.14
17 0.15
18 0.15
19 0.27
2 -0.66
3 0.3
4 -0.71
5 -0.09
6 0.72
7 0.3
8 0.3
9 -0.3

> <PUBCHEM_EFFECTIVE_ROTOR_COUNT>
2

> <PUBCHEM_PHARMACOPHORE_FEATURES>
4
1 1 acceptor
1 3 donor
1 4 acceptor
5 3 4 5 9 10 rings

> <PUBCHEM_HEAVY_ATOM_COUNT>
10

> <PUBCHEM_ATOM_DEF_STEREO_COUNT>
0

> <PUBCHEM_ATOM_UDEF_STEREO_COUNT>
0

> <PUBCHEM_BOND_DEF_STEREO_COUNT>
0

> <PUBCHEM_BOND_UDEF_STEREO_COUNT>
0

> <PUBCHEM_ISOTOPIC_ATOM_COUNT>
0

> <PUBCHEM_COMPONENT_COUNT>
1

> <PUBCHEM_CACTVS_TAUTO_COUNT>
2

> <PUBCHEM_CONFORMER_ID>
00CD3CF100000003

> <PUBCHEM_MMFF94_ENERGY>
20.1748

> <PUBCHEM_FEATURE_SELFOVERLAP>
20.297

> <PUBCHEM_SHAPE_FINGERPRINT>
10857977 72 17968660544112123673
12897270 3 18411134753372288469
12932764 1 18412542128250703311
14325111 11 18408605885497913076
14390081 3 18411695495723250937
16945 1 18413102857684777729
19973954 147 18337953381215448909
20645464 45 18128245873770882208
21040471 1 18336543919025093650
23235685 24 18187362138213135812
23552423 10 18041562416814288779
2748010 2 18194399132879371917
29004967 10 18342740689049393930
369184 2 14851597799964179829
5084963 1 18200598132334440640

> <PUBCHEM_SHAPE_MULTIPOLES>
184.98
3.98
1.51
0.74
0.5
0.09
-0.02
-0.55
0.29
0.29
-0.14
0.09
-0.13
0.45

> <PUBCHEM_SHAPE_SELFOVERLAP>
378.668

> <PUBCHEM_SHAPE_VOLUME>
109.1

> <PUBCHEM_COORDINATE_TYPE>
2
5
10

$$$$
737420
  -OEChem-12051909403D

 23 23  0     1  0  0  0  0  0999 V2000
    3.7602   -1.2351   -0.1170 O   0  0  0  0  0  0  0  0  0  0  0  0
    0.7880    0.9414   -0.0936 N   0  0  3  0  0  0  0  0  0  0  0  0
   -0.5083   -1.0491    0.0919 N   0  0  0  0  0  0  0  0  0  0  0  0
    1.9416    0.2471   -0.6215 C   0  0  0  0  0  0  0  0  0  0  0  0
   -0.4722    0.2954   -0.0457 C   0  0  0  0  0  0  0  0  0  0  0  0
    2.6578   -0.5449    0.4571 C   0  0  0  0  0  0  0  0  0  0  0  0
    0.9314    2.2937    0.3979 C   0  0  0  0  0  0  0  0  0  0  0  0
   -1.5991    1.0956   -0.1444 C   0  0  0  0  0  0  0  0  0  0  0  0
   -2.8431    0.4763   -0.0987 C   0  0  0  0  0  0  0  0  0  0  0  0
   -1.7352   -1.6156    0.1321 C   0  0  0  0  0  0  0  0  0  0  0  0
   -2.9212   -0.9049    0.0419 C   0  0  0  0  0  0  0  0  0  0  0  0
    2.6417    0.9636   -1.0711 H   0  0  0  0  0  0  0  0  0  0  0  0
    1.6589   -0.4152   -1.4508 H   0  0  0  0  0  0  0  0  0  0  0  0
    2.0045   -1.2896    0.9203 H   0  0  0  0  0  0  0  0  0  0  0  0
    3.0316    0.1087    1.2525 H   0  0  0  0  0  0  0  0  0  0  0  0
    0.5747    3.0198   -0.3402 H   0  0  0  0  0  0  0  0  0  0  0  0
    1.9832    2.5289    0.5978 H   0  0  0  0  0  0  0  0  0  0  0  0
    0.3939    2.4411    1.3415 H   0  0  0  0  0  0  0  0  0  0  0  0
   -1.5606    2.1716   -0.2705 H   0  0  0  0  0  0  0  0  0  0  0  0
   -3.7504    1.0678   -0.1764 H   0  0  0  0  0  0  0  0  0  0  0  0
   -1.7415   -2.6950    0.2424 H   0  0  0  0  0  0  0  0  0  0  0  0
   -3.8800   -1.4091    0.0787 H   0  0  0  0  0  0  0  0  0  0  0  0
    4.3584   -0.5685   -0.4957 H   0  0  0  0  0  0  0  0  0  0  0  0
  1  6  1  0  0  0  0
  1 23  1  0  0  0  0
  2  4  1  0  0  0  0
  2  5  1  0  0  0  0
  2  7  1  0  0  0  0
  3  5  1  0  0  0  0
  3 10  2  0  0  0  0
  4  6  1  0  0  0  0
  4 12  1  0  0  0  0
  4 13  1  0  0  0  0
  5  8  2  0  0  0  0
  6 14  1  0  0  0  0
  6 15  1  0  0  0  0
  7 16  1  0  0  0  0
  7 17  1  0  0  0  0
  7 18  1  0  0  0  0
  8  9  1  0  0  0  0
  8 19  1  0  0  0  0
  9 11  2  0  0  0  0
  9 20  1  0  0  0  0
 10 11  1  0  0  0  0
 10 21  1  0  0  0  0
 11 22  1  0  0  0  0
M  END
> <PUBCHEM_COMPOUND_CID>
737420

> <PUBCHEM_CONFORMER_RMSD>
0.6

> <PUBCHEM_CONFORMER_DIVERSEORDER>
2
24
8
15
26
25
23
20
5
27
4
21
3
17
16
12
13
10
22
19
6
14
7
1
28
11
18
9

> <PUBCHEM_MMFF94_PARTIAL_CHARGES>
16
1 -0.68
10 0.16
11 -0.15
19 0.15
2 -0.84
20 0.15
21 0.15
22 0.15
23 0.4
3 -0.62
4 0.37
5 0.41
6 0.28
7 0.37
8 -0.15
9 -0.15

> <PUBCHEM_EFFECTIVE_ROTOR_COUNT>
3

> <PUBCHEM_PHARMACOPHORE_FEATURES>
5
1 1 acceptor
1 1 donor
1 2 cation
1 3 acceptor
6 3 5 8 9 10 11 rings

> <PUBCHEM_HEAVY_ATOM_COUNT>
11

> <PUBCHEM_ATOM_DEF_STEREO_COUNT>
0

> <PUBCHEM_ATOM_UDEF_STEREO_COUNT>
0

> <PUBCHEM_BOND_DEF_STEREO_COUNT>
0

> <PUBCHEM_BOND_UDEF_STEREO_COUNT>
0

> <PUBCHEM_ISOTOPIC_ATOM_COUNT>
0

> <PUBCHEM_COMPONENT_COUNT>
1

> <PUBCHEM_CACTVS_TAUTO_COUNT>
1

> <PUBCHEM_CONFORMER_ID>
000B408C00000002

> <PUBCHEM_MMFF94_ENERGY>
38.0538

> <PUBCHEM_FEATURE_SELFOVERLAP>
25.371

> <PUBCHEM_SHAPE_FINGERPRINT>
10130415 120 18409168792216889864
12932764 1 18198071476183638917
14128692 85 18260271849789311236
14325111 11 18408604785833466901
16945 1 18342183254203154781
17841504 4 18270961357358108880
18511873 20 18261394403594798789
19973954 147 18267304412044360921
20201158 50 18341613689673361966
21501502 16 18268996551780858925
23402539 116 18059564747088090005
23463225 33 18335421214642757382
23552423 10 18044941422288997933
23559900 14 18340198571891987306
2748010 2 18264484177672296901
369184 2 14405192754866813319
5084963 1 17822008739745595205
7364860 26 18197216056258957696

> <PUBCHEM_SHAPE_MULTIPOLES>
210.54
4.97
1.87
0.67
1.92
0.54
-0.01
-2.04
-0.05
0.3
0.21
0.11
0.04
0.13

> <PUBCHEM_SHAPE_SELFOVERLAP>
422.229

> <PUBCHEM_SHAPE_VOLUME>
124

> <PUBCHEM_COORDINATE_TYPE>
2
5
10

$$$$
880785
  -OEChem-12051909403D

 38 39  0     0  0  0  0  0  0999 V2000
   -1.1736    0.8777    0.6117 O   0  0  0  0  0  0  0  0  0  0  0  0
    0.9113    2.2027    0.0700 O   0  0  0  0  0  0  0  0  0  0  0  0
    2.2939    0.3789   -0.3264 N   0  0  0  0  0  0  0  0  0  0  0  0
    4.9260   -0.7481   -0.2263 N   0  0  0  0  0  0  0  0  0  0  0  0
    3.4671    1.2055   -0.6057 C   0  0  0  0  0  0  0  0  0  0  0  0
    2.4940   -1.0560   -0.5496 C   0  0  0  0  0  0  0  0  0  0  0  0
    4.7074    0.6671    0.1065 C   0  0  0  0  0  0  0  0  0  0  0  0
    3.7567   -1.5529    0.1567 C   0  0  0  0  0  0  0  0  0  0  0  0
    6.1324   -1.2498    0.4305 C   0  0  0  0  0  0  0  0  0  0  0  0
    1.0799    0.9829   -0.0023 C   0  0  0  0  0  0  0  0  0  0  0  0
   -0.0792    0.0595    0.2765 C   0  0  0  0  0  0  0  0  0  0  0  0
   -2.4336    0.3874    0.3501 C   0  0  0  0  0  0  0  0  0  0  0  0
   -2.6524   -0.9817    0.3876 C   0  0  0  0  0  0  0  0  0  0  0  0
   -3.4610    1.2701    0.0528 C   0  0  0  0  0  0  0  0  0  0  0  0
   -4.9701   -0.6024   -0.1786 C   0  0  0  0  0  0  0  0  0  0  0  0
   -3.9280   -1.4794    0.1216 C   0  0  0  0  0  0  0  0  0  0  0  0
   -4.7367    0.7725   -0.2130 C   0  0  0  0  0  0  0  0  0  0  0  0
   -6.3342   -1.1340   -0.4620 C   0  0  0  0  0  0  0  0  0  0  0  0
    3.2896    2.2431   -0.3046 H   0  0  0  0  0  0  0  0  0  0  0  0
    3.6146    1.2013   -1.6928 H   0  0  0  0  0  0  0  0  0  0  0  0
    2.5792   -1.2017   -1.6336 H   0  0  0  0  0  0  0  0  0  0  0  0
    1.6385   -1.6439   -0.2118 H   0  0  0  0  0  0  0  0  0  0  0  0
    5.5725    1.2642   -0.2060 H   0  0  0  0  0  0  0  0  0  0  0  0
    4.5917    0.7949    1.1911 H   0  0  0  0  0  0  0  0  0  0  0  0
    3.6044   -1.5178    1.2438 H   0  0  0  0  0  0  0  0  0  0  0  0
    3.9171   -2.6018   -0.1200 H   0  0  0  0  0  0  0  0  0  0  0  0
    7.0101   -0.6769    0.1114 H   0  0  0  0  0  0  0  0  0  0  0  0
    6.3184   -2.2920    0.1482 H   0  0  0  0  0  0  0  0  0  0  0  0
    6.0634   -1.1954    1.5230 H   0  0  0  0  0  0  0  0  0  0  0  0
    0.1692   -0.5889    1.1230 H   0  0  0  0  0  0  0  0  0  0  0  0
   -0.2654   -0.5183   -0.6370 H   0  0  0  0  0  0  0  0  0  0  0  0
   -1.8727   -1.6933    0.6406 H   0  0  0  0  0  0  0  0  0  0  0  0
   -3.2815    2.3409    0.0246 H   0  0  0  0  0  0  0  0  0  0  0  0
   -4.0986   -2.5522    0.1548 H   0  0  0  0  0  0  0  0  0  0  0  0
   -5.5400    1.4660   -0.4474 H   0  0  0  0  0  0  0  0  0  0  0  0
   -7.1076   -0.4222   -0.1540 H   0  0  0  0  0  0  0  0  0  0  0  0
   -6.4455   -1.3312   -1.5329 H   0  0  0  0  0  0  0  0  0  0  0  0
   -6.5181   -2.0637    0.0870 H   0  0  0  0  0  0  0  0  0  0  0  0
  1 11  1  0  0  0  0
  1 12  1  0  0  0  0
  2 10  2  0  0  0  0
  3  5  1  0  0  0  0
  3  6  1  0  0  0  0
  3 10  1  0  0  0  0
  4  7  1  0  0  0  0
  4  8  1  0  0  0  0
  4  9  1  0  0  0  0
  5  7  1  0  0  0  0
  5 19  1  0  0  0  0
  5 20  1  0  0  0  0
  6  8  1  0  0  0  0
  6 21  1  0  0  0  0
  6 22  1  0  0  0  0
  7 23  1  0  0  0  0
  7 24  1  0  0  0  0
  8 25  1  0  0  0  0
  8 26  1  0  0  0  0
  9 27  1  0  0  0  0
  9 28  1  0  0  0  0
  9 29  1  0  0  0  0
 10 11  1  0  0  0  0
 11 30  1  0  0  0  0
 11 31  1  0  0  0  0
 12 13  2  0  0  0  0
 12 14  1  0  0  0  0
 13 16  1  0  0  0  0
 13 32  1  0  0  0  0
 14 17  2  0  0  0  0
 14 33  1  0  0  0  0
 15 16  2  0  0  0  0
 15 17  1  0  0  0  0
 15 18  1  0  0  0  0
 16 34  1  0  0  0  0
 17 35  1  0  0  0  0
 18 36  1  0  0  0  0
 18 37  1  0  0  0  0
 18 38  1  0  0  0  0
M  END
> <PUBCHEM_COMPOUND_CID>
880785

> <PUBCHEM_CONFORMER_RMSD>
0.8

> <PUBCHEM_CONFORMER_DIVERSEORDER>
1
26
17
20
11
19
29
14
28
15
27
10
25
13
5
24
6
3
12
30
16
9
18
8
4
2
7
23
22
21

> <PUBCHEM_MMFF94_PARTIAL_CHARGES>
22
1 -0.36
10 0.57
11 0.34
12 0.08
13 -0.15
14 -0.15
15 -0.14
16 -0.15
17 -0.15
18 0.14
2 -0.57
3 -0.66
32 0.15
33 0.15
34 0.15
35 0.15
4 -0.81
5 0.3
6 0.3
7 0.27
8 0.27
9 0.27

> <PUBCHEM_EFFECTIVE_ROTOR_COUNT>
5.2

> <PUBCHEM_PHARMACOPHORE_FEATURES>
5
1 1 acceptor
1 2 acceptor
1 4 cation
6 12 13 14 15 16 17 rings
6 3 4 5 6 7 8 rings

> <PUBCHEM_HEAVY_ATOM_COUNT>
18

> <PUBCHEM_ATOM_DEF_STEREO_COUNT>
0

> <PUBCHEM_ATOM_UDEF_STEREO_COUNT>
0

> <PUBCHEM_BOND_DEF_STEREO_COUNT>
0

> <PUBCHEM_BOND_UDEF_STEREO_COUNT>
0

> <PUBCHEM_ISOTOPIC_ATOM_COUNT>
0

> <PUBCHEM_COMPONENT_COUNT>
1

> <PUBCHEM_CACTVS_TAUTO_COUNT>
1

> <PUBCHEM_CONFORMER_ID>
000D709100000001

> <PUBCHEM_MMFF94_ENERGY>
46.4895

> <PUBCHEM_FEATURE_SELFOVERLAP>
25.389

> <PUBCHEM_SHAPE_FINGERPRINT>
100836 57 9367343747601457138
10447042 23 18412539920975039174
106641 1 15769766996351234874
10835480 77 18412255151469093305
11315181 36 18202566172312305985
12107183 9 17689718558381157113
12236239 1 18343585135454310280
12516196 113 18131348613800713392
12555020 224 18335977645321308567
12596602 18 16989126456754304986
13167823 11 18410011039503748015
13288520 33 18411699885791536333
13685833 64 18409452509651955691
13862211 1 18411136922499831282
1420 363 17489872630919094630
14251752 14 17749660806166377677
14251764 18 18131357423553857115
14252887 29 16845584093099008068
14848160 23 18272365365224432026
15048467 5 9007060166815698375
15183329 4 18114736054383777245
15196674 1 18410857663446391142
15352361 1 18411420609263230653
15788980 27 18113904853061967616
17834072 33 18411701006092289388
17834072 8 17458062664078856762
17844677 252 18411143532249128785
17857418 61 18411698789931544427
18186145 218 14129351722987024092
18222031 100 18342184349826101228
200 152 18130788971161877441
20028762 73 18341046325253955982
20374829 77 18335138674255408649
20645477 70 18411421691711228870
21250096 35 18342739602580910624
21267235 1 18411990151875536678
221490 88 18191594248863095603
22224240 67 16343694439926569630
22646028 1 18273497883765541977
23402539 116 18411979140112269837
23559900 14 18266452282248900777
239999 70 18201444666832279422
26918003 58 18343301444474915560
2871803 45 18259703389392927066
29717793 49 18409168809322867260
3004659 81 18259703393803782946
34797466 226 16773523265077631280
351380 3 18272931630845412519
4214541 1 18410013204510312469
4340502 62 14836404723017542700
449060 50 9727643799655406905
465052 167 18272938253484445134
4921388 177 16516259547216130803
5104073 3 18341899609930512777
5283173 99 18188766137316230797
559249 180 18409727323081558115
59682541 35 18343009018328678394
59755656 520 16805610248876652865
67856867 119 18338236076190049788
7495541 125 17775001331718059208
960060 61 17821738234384254164
9709674 26 18190745439024730939
9971528 1 17676207996244889012

> <PUBCHEM_SHAPE_MULTIPOLES>
348.73
15.04
1.76
0.71
0.15
0.15
0.01
-5.84
0.91
-0.38
-0.01
-0.02
-0.02
-0.38

> <PUBCHEM_SHAPE_SELFOVERLAP>
718.423

> <PUBCHEM_SHAPE_VOLUME>
201.4

> <PUBCHEM_COORDINATE_TYPE>
2
5
10

$$$$
82408504
  -OEChem-12051909403D

 24 25  0     1  0  0  0  0  0999 V2000
   -3.6234    0.4840    0.3034 O   0  0  0  0  0  0  0  0  0  0  0  0
   -1.7092    0.7882    1.5032 O   0  0  0  0  0  0  0  0  0  0  0  0
    2.0940    0.6769   -0.0398 N   0  0  0  0  0  0  0  0  0  0  0  0
    2.0188   -1.3895    0.6028 N   0  0  0  0  0  0  0  0  0  0  0  0
    2.8087   -0.3182    0.5233 N   0  0  0  0  0  0  0  0  0  0  0  0
   -1.5885    0.2308   -0.8496 C   0  0  2  0  0  0  0  0  0  0  0  0
   -1.4116   -1.3026   -0.9950 C   0  0  0  0  0  0  0  0  0  0  0  0
   -0.2640    1.0250   -0.9641 C   0  0  0  0  0  0  0  0  0  0  0  0
   -0.3794   -1.9152   -0.0194 C   0  0  0  0  0  0  0  0  0  0  0  0
    0.8334    0.2630   -0.3303 C   0  0  0  0  0  0  0  0  0  0  0  0
    0.8093   -1.0455    0.0788 C   0  0  0  0  0  0  0  0  0  0  0  0
   -2.2769    0.5335    0.4514 C   0  0  0  0  0  0  0  0  0  0  0  0
    2.6889    1.9695   -0.2647 C   0  0  0  0  0  0  0  0  0  0  0  0
   -2.2461    0.5943   -1.6510 H   0  0  0  0  0  0  0  0  0  0  0  0
   -1.0825   -1.5077   -2.0227 H   0  0  0  0  0  0  0  0  0  0  0  0
   -2.3720   -1.8162   -0.8654 H   0  0  0  0  0  0  0  0  0  0  0  0
   -0.3621    2.0203   -0.5159 H   0  0  0  0  0  0  0  0  0  0  0  0
   -0.0237    1.1625   -2.0256 H   0  0  0  0  0  0  0  0  0  0  0  0
   -0.0982   -2.9170   -0.3610 H   0  0  0  0  0  0  0  0  0  0  0  0
   -0.8297   -2.0213    0.9742 H   0  0  0  0  0  0  0  0  0  0  0  0
    2.7191    2.5004    0.6898 H   0  0  0  0  0  0  0  0  0  0  0  0
    3.7002    1.8266   -0.6541 H   0  0  0  0  0  0  0  0  0  0  0  0
    2.0948    2.5289   -0.9904 H   0  0  0  0  0  0  0  0  0  0  0  0
   -4.0916    0.6774    1.1434 H   0  0  0  0  0  0  0  0  0  0  0  0
  1 12  1  0  0  0  0
  1 24  1  0  0  0  0
  2 12  2  0  0  0  0
  3  5  1  0  0  0  0
  3 10  1  0  0  0  0
  3 13  1  0  0  0  0
  4  5  2  0  0  0  0
  4 11  1  0  0  0  0
  6  7  1  0  0  0  0
  6  8  1  0  0  0  0
  6 12  1  0  0  0  0
  6 14  1  0  0  0  0
  7  9  1  0  0  0  0
  7 15  1  0  0  0  0
  7 16  1  0  0  0  0
  8 10  1  0  0  0  0
  8 17  1  0  0  0  0
  8 18  1  0  0  0  0
  9 11  1  0  0  0  0
  9 19  1  0  0  0  0
  9 20  1  0  0  0  0
 10 11  2  0  0  0  0
 13 21  1  0  0  0  0
 13 22  1  0  0  0  0
 13 23  1  0  0  0  0
M  END
> <PUBCHEM_COMPOUND_CID>
82408504

> <PUBCHEM_CONFORMER_RMSD>
0.6

> <PUBCHEM_CONFORMER_DIVERSEORDER>
1
5
4
6
3
2

> <PUBCHEM_MMFF94_PARTIAL_CHARGES>
13
1 -0.65
10 -0.33
11 0.05
12 0.66
13 0.26
2 -0.57
24 0.5
3 0.31
4 -0.23
5 -0.42
6 0.06
8 0.18
9 0.18

> <PUBCHEM_EFFECTIVE_ROTOR_COUNT>
1.8

> <PUBCHEM_PHARMACOPHORE_FEATURES>
5
1 1 acceptor
1 2 acceptor
3 1 2 12 anion
5 3 4 5 10 11 rings
6 6 7 8 9 10 11 rings

> <PUBCHEM_HEAVY_ATOM_COUNT>
13

> <PUBCHEM_ATOM_DEF_STEREO_COUNT>
0

> <PUBCHEM_ATOM_UDEF_STEREO_COUNT>
1

> <PUBCHEM_BOND_DEF_STEREO_COUNT>
0

> <PUBCHEM_BOND_UDEF_STEREO_COUNT>
0

> <PUBCHEM_ISOTOPIC_ATOM_COUNT>
0

> <PUBCHEM_COMPONENT_COUNT>
1

> <PUBCHEM_CACTVS_TAUTO_COUNT>
1

> <PUBCHEM_CONFORMER_ID>
04E9743800000001

> <PUBCHEM_MMFF94_ENERGY>
17.1318

> <PUBCHEM_FEATURE_SELFOVERLAP>
25.524

> <PUBCHEM_SHAPE_FINGERPRINT>
10219947 1 18260833670234918413
10857977 72 16805328794541100797
11471102 22 18041569043869387129
12251169 10 18408881815350169250
12423570 1 18267851796756668271
12491281 212 18340775947875658400
13024252 1 14274555444548324103
13380535 21 18262809582924565494
14617773 55 18199453544888126559
15775835 57 18410858797365541948
16945 1 18336535011168145342
17841504 4 17751915831089123602
17844478 74 17603586287794844492
19837323 101 16774080669832283775
21501502 16 18338791351094493766
22802520 49 16414939503128955668
23236772 104 18195807585915670093
23419403 2 10298468167360206214
2748010 2 18260540151869353182
369184 2 18040707074129693647
5084963 1 18270098159194380926
528862 383 18333450932470274873
63268167 104 18408877447363095908

> <PUBCHEM_SHAPE_MULTIPOLES>
240.85
4.21
1.8
1.02
0.12
0.32
0.06
-1.51
0.77
-0.65
-0.07
0.44
-0.11
-0.62

> <PUBCHEM_SHAPE_SELFOVERLAP>
508.755

> <PUBCHEM_SHAPE_VOLUME>
133.6

> <PUBCHEM_COORDINATE_TYPE>
2
5
10

$$$$
121440047
  -OEChem-12051909403D

 29 30  0     0  0  0  0  0  0999 V2000
   -0.8311   -1.8565    1.3048 F   0  0  0  0  0  0  0  0  0  0  0  0
    1.2138   -0.4260   -1.6391 O   0  0  0  0  0  0  0  0  0  0  0  0
    2.6093   -1.1258    0.0885 N   0  0  0  0  0  0  0  0  0  0  0  0
    1.3590    0.9184    0.2753 C   0  0  0  0  0  0  0  0  0  0  0  0
    2.4916    1.8472    0.6618 C   0  0  0  0  0  0  0  0  0  0  0  0
    1.5151    2.2686   -0.3937 C   0  0  0  0  0  0  0  0  0  0  0  0
    0.2284    0.7690    1.2621 C   0  0  0  0  0  0  0  0  0  0  0  0
    1.7136   -0.2751   -0.5304 C   0  0  0  0  0  0  0  0  0  0  0  0
   -1.0471    0.3883    0.5637 C   0  0  0  0  0  0  0  0  0  0  0  0
   -1.5136   -0.9247    0.6248 C   0  0  0  0  0  0  0  0  0  0  0  0
   -1.7647    1.3510   -0.1462 C   0  0  0  0  0  0  0  0  0  0  0  0
    3.0870   -2.3473   -0.5185 C   0  0  0  0  0  0  0  0  0  0  0  0
   -2.6976   -1.2752   -0.0240 C   0  0  0  0  0  0  0  0  0  0  0  0
   -2.9487    1.0006   -0.7950 C   0  0  0  0  0  0  0  0  0  0  0  0
   -3.4152   -0.3126   -0.7340 C   0  0  0  0  0  0  0  0  0  0  0  0
    3.5001    1.6133    0.3406 H   0  0  0  0  0  0  0  0  0  0  0  0
    2.4460    2.3502    1.6207 H   0  0  0  0  0  0  0  0  0  0  0  0
    0.8401    3.0763   -0.1383 H   0  0  0  0  0  0  0  0  0  0  0  0
    1.8702    2.3068   -1.4172 H   0  0  0  0  0  0  0  0  0  0  0  0
    0.0594    1.6958    1.8267 H   0  0  0  0  0  0  0  0  0  0  0  0
    0.4991    0.0162    2.0130 H   0  0  0  0  0  0  0  0  0  0  0  0
    2.9409   -0.9038    1.0226 H   0  0  0  0  0  0  0  0  0  0  0  0
   -1.4249    2.3811   -0.1946 H   0  0  0  0  0  0  0  0  0  0  0  0
    2.6574   -3.1898    0.0289 H   0  0  0  0  0  0  0  0  0  0  0  0
    4.1754   -2.3720   -0.4268 H   0  0  0  0  0  0  0  0  0  0  0  0
    2.8001   -2.4053   -1.5711 H   0  0  0  0  0  0  0  0  0  0  0  0
   -3.0605   -2.2976    0.0238 H   0  0  0  0  0  0  0  0  0  0  0  0
   -3.5090    1.7508   -1.3454 H   0  0  0  0  0  0  0  0  0  0  0  0
   -4.3374   -0.5853   -1.2386 H   0  0  0  0  0  0  0  0  0  0  0  0
  1 10  1  0  0  0  0
  2  8  2  0  0  0  0
  3  8  1  0  0  0  0
  3 12  1  0  0  0  0
  3 22  1  0  0  0  0
  4  5  1  0  0  0  0
  4  6  1  0  0  0  0
  4  7  1  0  0  0  0
  4  8  1  0  0  0  0
  5  6  1  0  0  0  0
  5 16  1  0  0  0  0
  5 17  1  0  0  0  0
  6 18  1  0  0  0  0
  6 19  1  0  0  0  0
  7  9  1  0  0  0  0
  7 20  1  0  0  0  0
  7 21  1  0  0  0  0
  9 10  1  0  0  0  0
  9 11  2  0  0  0  0
 10 13  2  0  0  0  0
 11 14  1  0  0  0  0
 11 23  1  0  0  0  0
 12 24  1  0  0  0  0
 12 25  1  0  0  0  0
 12 26  1  0  0  0  0
 13 15  1  0  0  0  0
 13 27  1  0  0  0  0
 14 15  2  0  0  0  0
 14 28  1  0  0  0  0
 15 29  1  0  0  0  0
M  END
> <PUBCHEM_COMPOUND_CID>
121440047

> <PUBCHEM_CONFORMER_RMSD>
0.6

> <PUBCHEM_CONFORMER_DIVERSEORDER>
1
8
22
16
5
36
14
28
19
35
40
41
20
31
11
38
21
23
27
18
13
15
6
30
33
39
29
37
2
12
9
17
25
7
3
32
34
10
4
24
26

> <PUBCHEM_MMFF94_PARTIAL_CHARGES>
24
1 -0.19
10 0.19
11 -0.15
12 0.3
13 -0.15
14 -0.15
15 -0.15
16 0.1
17 0.1
18 0.1
19 0.1
2 -0.57
22 0.37
23 0.15
27 0.15
28 0.15
29 0.15
3 -0.73
4 -0.09
5 -0.2
6 -0.2
7 0.24
8 0.63
9 -0.14

> <PUBCHEM_EFFECTIVE_ROTOR_COUNT>
4.6

> <PUBCHEM_PHARMACOPHORE_FEATURES>
3
1 2 acceptor
1 3 donor
6 9 10 11 13 14 15 rings

> <PUBCHEM_HEAVY_ATOM_COUNT>
15

> <PUBCHEM_ATOM_DEF_STEREO_COUNT>
0

> <PUBCHEM_ATOM_UDEF_STEREO_COUNT>
0

> <PUBCHEM_BOND_DEF_STEREO_COUNT>
0

> <PUBCHEM_BOND_UDEF_STEREO_COUNT>
0

> <PUBCHEM_ISOTOPIC_ATOM_COUNT>
0

> <PUBCHEM_COMPONENT_COUNT>
1

> <PUBCHEM_CACTVS_TAUTO_COUNT>
4

> <PUBCHEM_CONFORMER_ID>
073D072F00000001

> <PUBCHEM_MMFF94_ENERGY>
28.7867

> <PUBCHEM_FEATURE_SELFOVERLAP>
15.223

> <PUBCHEM_SHAPE_FINGERPRINT>
10922523 26 18335695057467565541
12138202 97 18044364157235855237
12654903 92 17168436973221984615
12716758 59 18187081767443732443
13380535 76 18191576652308367264
15219456 202 18411416258487779081
15279308 128 17903077733337048444
15775835 57 16950827189867585741
15852999 172 18265880544232943432
16945 1 18193563491220897745
17357990 137 16008743598116991293
17834072 14 18340758248552893002
17990270 104 18412543223604448944
18186145 218 18260539001303420805
20201158 50 18340767151629557929
20645477 70 18342730836916890455
20671657 53 18270405984090845222
21501502 16 18272938223715157305
21947302 44 18409726296083318485
22802520 49 18334582356032146875
23402539 116 17973138889342538013
23419403 2 17340083846990873120
23532345 88 18342447183853476279
23557571 272 17678742469230660603
23559900 14 18194677069710703842
2748010 2 18261113014781178363
7364860 26 18341890822749171288
81228 2 17622181070120767848
9709674 26 18336543927494033851

> <PUBCHEM_SHAPE_MULTIPOLES>
290.57
5.11
2.33
1.14
1.26
0.25
0
1.25
-1.14
-1.79
-0.01
0.02
0.1
0.7

> <PUBCHEM_SHAPE_SELFOVERLAP>
610.114

> <PUBCHEM_SHAPE_VOLUME>
165.6

> <PUBCHEM_COORDINATE_TYPE>
2
5
10

$$$$
14196351
  -OEChem-12051909403D

 23 23  0     0  0  0  0  0  0999 V2000
    1.8593    0.2763   -0.1112 S   0  0  0  0  0  0  0  0  0  0  0  0
    2.1513   -0.6715   -1.1751 O   0  0  0  0  0  0  0  0  0  0  0  0
    2.4979    1.5835   -0.1070 O   0  0  0  0  0  0  0  0  0  0  0  0
   -0.2656   -1.9061   -0.2547 N   0  0  0  0  0  0  0  0  0  0  0  0
    0.1232    0.4988   -0.0563 C   0  0  0  0  0  0  0  0  0  0  0  0
   -0.7511   -0.5856   -0.1313 C   0  0  0  0  0  0  0  0  0  0  0  0
   -0.3808    1.7938    0.0653 C   0  0  0  0  0  0  0  0  0  0  0  0
   -2.1292   -0.3748   -0.0847 C   0  0  0  0  0  0  0  0  0  0  0  0
    2.2491   -0.4998    1.4395 C   0  0  0  0  0  0  0  0  0  0  0  0
   -1.7588    2.0046    0.1119 C   0  0  0  0  0  0  0  0  0  0  0  0
   -2.6330    0.9203    0.0369 C   0  0  0  0  0  0  0  0  0  0  0  0
   -0.9625   -3.0396    0.2668 C   0  0  0  0  0  0  0  0  0  0  0  0
    0.2726    2.6590    0.1281 H   0  0  0  0  0  0  0  0  0  0  0  0
    1.7697   -1.4762    1.5052 H   0  0  0  0  0  0  0  0  0  0  0  0
    3.3336   -0.6230    1.4881 H   0  0  0  0  0  0  0  0  0  0  0  0
    1.9171    0.1497    2.2521 H   0  0  0  0  0  0  0  0  0  0  0  0
   -2.8388   -1.1945   -0.1501 H   0  0  0  0  0  0  0  0  0  0  0  0
    0.7089   -2.0297   -0.5007 H   0  0  0  0  0  0  0  0  0  0  0  0
   -2.1515    3.0128    0.2066 H   0  0  0  0  0  0  0  0  0  0  0  0
   -3.7059    1.0850    0.0711 H   0  0  0  0  0  0  0  0  0  0  0  0
   -1.2405   -2.8936    1.3158 H   0  0  0  0  0  0  0  0  0  0  0  0
   -0.3166   -3.9224    0.2180 H   0  0  0  0  0  0  0  0  0  0  0  0
   -1.8599   -3.2650   -0.3179 H   0  0  0  0  0  0  0  0  0  0  0  0
  1  2  2  0  0  0  0
  1  3  2  0  0  0  0
  1  5  1  0  0  0  0
  1  9  1  0  0  0  0
  4  6  1  0  0  0  0
  4 12  1  0  0  0  0
  4 18  1  0  0  0  0
  5  6  1  0  0  0  0
  5  7  2  0  0  0  0
  6  8  2  0  0  0  0
  7 10  1  0  0  0  0
  7 13  1  0  0  0  0
  8 11  1  0  0  0  0
  8 17  1  0  0  0  0
  9 14  1  0  0  0  0
  9 15  1  0  0  0  0
  9 16  1  0  0  0  0
 10 11  2  0  0  0  0
 10 19  1  0  0  0  0
 11 20  1  0  0  0  0
 12 21  1  0  0  0  0
 12 22  1  0  0  0  0
 12 23  1  0  0  0  0
M  END
> <PUBCHEM_COMPOUND_CID>
14196351

> <PUBCHEM_CONFORMER_RMSD>
0.6

> <PUBCHEM_CONFORMER_DIVERSEORDER>
1
4
3
2

> <PUBCHEM_MMFF94_PARTIAL_CHARGES>
17
1 1.2
10 -0.15
11 -0.15
12 0.37
13 0.15
17 0.15
18 0.4
19 0.15
2 -0.65
20 0.15
3 -0.65
4 -0.87
5 -0.01
6 0.1
7 -0.15
8 -0.15
9 0.11

> <PUBCHEM_EFFECTIVE_ROTOR_COUNT>
2

> <PUBCHEM_PHARMACOPHORE_FEATURES>
5
1 2 acceptor
1 3 acceptor
1 4 cation
1 4 donor
6 5 6 7 8 10 11 rings

> <PUBCHEM_HEAVY_ATOM_COUNT>
12

> <PUBCHEM_ATOM_DEF_STEREO_COUNT>
0

> <PUBCHEM_ATOM_UDEF_STEREO_COUNT>
0

> <PUBCHEM_BOND_DEF_STEREO_COUNT>
0

> <PUBCHEM_BOND_UDEF_STEREO_COUNT>
0

> <PUBCHEM_ISOTOPIC_ATOM_COUNT>
0

> <PUBCHEM_COMPONENT_COUNT>
1

> <PUBCHEM_CACTVS_TAUTO_COUNT>
1

> <PUBCHEM_CONFORMER_ID>
00D89E7F00000001

> <PUBCHEM_MMFF94_ENERGY>
35.0533

> <PUBCHEM_FEATURE_SELFOVERLAP>
25.389

> <PUBCHEM_SHAPE_FINGERPRINT>
12524768 44 18270402814014584076
12716758 59 18412271639932048822
15076042 46 18408316674963355698
15775835 57 18041846112420960260
161256 15 17257938620151294887
16945 1 18122062005511931805
193761 8 17618504724070660605
20645476 183 17895487980548041103
20871998 184 17984989446772285751
21040471 1 18411699846414144132
22802520 49 18129124331958512342
23552423 10 17905612103591836301
23559900 14 17984150267137127750
241688 4 16608290482520312665
2748010 2 18410579470109726285
369184 2 17821442443817776721
5084963 1 17988084370172640976
7364860 26 17551222978793873911
81228 2 18268147746031616371

> <PUBCHEM_SHAPE_MULTIPOLES>
234.08
3.52
2.64
0.88
0.65
1.78
-0.11
-1.13
-0.21
-0.87
-0.12
0.59
0.12
-0.12

> <PUBCHEM_SHAPE_SELFOVERLAP>
467.41

> <PUBCHEM_SHAPE_VOLUME>
139.3

> <PUBCHEM_COORDINATE_TYPE>
2
5
10

$$$$
24706404
  -OEChem-12051909403D

 22 23  0     0  0  0  0  0  0999 V2000
    0.3498    0.0986    0.1719 N   0  0  0  0  0  0  0  0  0  0  0  0
   -2.8456    0.3739   -0.5918 N   0  0  0  0  0  0  0  0  0  0  0  0
   -0.5658   -1.8950    0.1221 N   0  0  0  0  0  0  0  0  0  0  0  0
    0.7835   -2.0403   -0.1337 N   0  0  0  0  0  0  0  0  0  0  0  0
   -0.8066   -0.6153    0.3019 C   0  0  0  0  0  0  0  0  0  0  0  0
   -2.1146   -0.0007    0.5996 C   0  0  0  0  0  0  0  0  0  0  0  0
    1.3291   -0.8431   -0.1028 C   0  0  0  0  0  0  0  0  0  0  0  0
    0.5936    1.4623    0.2738 C   0  0  0  0  0  0  0  0  0  0  0  0
    2.6573   -0.3691   -0.2895 C   0  0  0  0  0  0  0  0  0  0  0  0
    1.8486    1.9088    0.0983 C   0  0  0  0  0  0  0  0  0  0  0  0
    2.9072    0.9519   -0.1928 C   0  0  0  0  0  0  0  0  0  0  0  0
   -4.1367    0.9681   -0.2571 C   0  0  0  0  0  0  0  0  0  0  0  0
   -2.7018   -0.7364    1.1649 H   0  0  0  0  0  0  0  0  0  0  0  0
   -1.9902    0.8598    1.2679 H   0  0  0  0  0  0  0  0  0  0  0  0
   -0.2320    2.1287    0.4878 H   0  0  0  0  0  0  0  0  0  0  0  0
    3.4520   -1.0737   -0.5067 H   0  0  0  0  0  0  0  0  0  0  0  0
   -2.3037    1.0507   -1.1293 H   0  0  0  0  0  0  0  0  0  0  0  0
    2.0965    2.9611    0.1646 H   0  0  0  0  0  0  0  0  0  0  0  0
    3.9113    1.3383   -0.3309 H   0  0  0  0  0  0  0  0  0  0  0  0
   -4.7658    0.2625    0.2950 H   0  0  0  0  0  0  0  0  0  0  0  0
   -4.6657    1.2299   -1.1787 H   0  0  0  0  0  0  0  0  0  0  0  0
   -4.0164    1.8817    0.3342 H   0  0  0  0  0  0  0  0  0  0  0  0
  1  5  1  0  0  0  0
  1  7  1  0  0  0  0
  1  8  1  0  0  0  0
  2  6  1  0  0  0  0
  2 12  1  0  0  0  0
  2 17  1  0  0  0  0
  3  4  1  0  0  0  0
  3  5  2  0  0  0  0
  4  7  2  0  0  0  0
  5  6  1  0  0  0  0
  6 13  1  0  0  0  0
  6 14  1  0  0  0  0
  7  9  1  0  0  0  0
  8 10  2  0  0  0  0
  8 15  1  0  0  0  0
  9 11  2  0  0  0  0
  9 16  1  0  0  0  0
 10 11  1  0  0  0  0
 10 18  1  0  0  0  0
 11 19  1  0  0  0  0
 12 20  1  0  0  0  0
 12 21  1  0  0  0  0
 12 22  1  0  0  0  0
M  END
> <PUBCHEM_COMPOUND_CID>
24706404

> <PUBCHEM_CONFORMER_RMSD>
0.6

> <PUBCHEM_CONFORMER_DIVERSEORDER>
1
5
3
6
2
4

> <PUBCHEM_MMFF94_PARTIAL_CHARGES>
17
1 0.33
10 -0.15
11 -0.15
12 0.27
15 0.15
16 0.15
17 0.36
18 0.15
19 0.15
2 -0.9
3 -0.34
4 -0.34
5 0.01
6 0.45
7 0.14
8 -0.18
9 -0.11

> <PUBCHEM_EFFECTIVE_ROTOR_COUNT>
2

> <PUBCHEM_PHARMACOPHORE_FEATURES>
6
1 2 cation
1 2 donor
3 1 3 5 cation
3 1 4 7 cation
5 1 3 4 5 7 rings
6 1 7 8 9 10 11 rings

> <PUBCHEM_HEAVY_ATOM_COUNT>
12

> <PUBCHEM_ATOM_DEF_STEREO_COUNT>
0

> <PUBCHEM_ATOM_UDEF_STEREO_COUNT>
0

> <PUBCHEM_BOND_DEF_STEREO_COUNT>
0

> <PUBCHEM_BOND_UDEF_STEREO_COUNT>
0

> <PUBCHEM_ISOTOPIC_ATOM_COUNT>
0

> <PUBCHEM_COMPONENT_COUNT>
1

> <PUBCHEM_CACTVS_TAUTO_COUNT>
1

> <PUBCHEM_CONFORMER_ID>
0178FD6400000001

> <PUBCHEM_MMFF94_ENERGY>
19.0243

> <PUBCHEM_FEATURE_SELFOVERLAP>
33.029

> <PUBCHEM_SHAPE_FINGERPRINT>
1 1 18410290306893610007
11031198 65 18408610240573626389
11471102 20 18410853218493057893
12654215 9 18336263444644030676
13380535 76 18410008862029272987
14251717 144 18340482279671313349
14325111 11 18410293657194876057
14911166 2 18340779173649149628
15279308 100 18337397152986079324
15775835 57 18412262852539926109
16945 1 18341625801718214602
18186145 218 18272662250475365305
20606313 2 18410571747658288237
21040471 1 18195813096664665976
23402655 69 18342168935067410077
23559900 14 18128274453322481908
25 1 18409167684262994509
2748010 2 18196947779700514058
3060560 45 18343016649504504735
528886 8 18411979182687084576
63268167 104 18342462529787422873

> <PUBCHEM_SHAPE_MULTIPOLES>
227.03
5.14
1.93
0.68
4.69
0.3
0.01
-2.27
-0.85
-0.66
0.03
0.13
-0.04
0.24

> <PUBCHEM_SHAPE_SELFOVERLAP>
480.808

> <PUBCHEM_SHAPE_VOLUME>
129

> <PUBCHEM_COORDINATE_TYPE>
2
5
10

$$$$
673870
  -OEChem-12051909403D

 32 33  0     0  0  0  0  0  0999 V2000
    5.3281   -0.1501   -0.8306 O   0  0  0  0  0  0  0  0  0  0  0  0
    4.0314   -1.3461    0.6250 O   0  0  0  0  0  0  0  0  0  0  0  0
    3.2026    0.5277   -0.5164 N   0  0  0  0  0  0  0  0  0  0  0  0
   -4.9790   -1.2096   -1.1169 N   0  0  0  0  0  0  0  0  0  0  0  0
   -2.1656    0.9651    1.2761 C   0  0  0  0  0  0  0  0  0  0  0  0
   -0.7550    0.8504    0.8054 C   0  0  0  0  0  0  0  0  0  0  0  0
   -3.1604    0.1962    0.4301 C   0  0  0  0  0  0  0  0  0  0  0  0
   -0.2503    1.7683   -0.1155 C   0  0  0  0  0  0  0  0  0  0  0  0
    0.0593   -0.1752    1.2860 C   0  0  0  0  0  0  0  0  0  0  0  0
    1.8832    0.6351   -0.0756 C   0  0  0  0  0  0  0  0  0  0  0  0
    1.0688    1.6606   -0.5561 C   0  0  0  0  0  0  0  0  0  0  0  0
    1.3784   -0.2829    0.8455 C   0  0  0  0  0  0  0  0  0  0  0  0
   -3.4482   -1.1127    0.7520 C   0  0  0  0  0  0  0  0  0  0  0  0
   -3.7565    0.8218   -0.6436 C   0  0  0  0  0  0  0  0  0  0  0  0
   -4.3638   -1.7720   -0.0524 C   0  0  0  0  0  0  0  0  0  0  0  0
   -4.6583    0.0760   -1.3854 C   0  0  0  0  0  0  0  0  0  0  0  0
    4.1640   -0.4147   -0.1596 C   0  0  0  0  0  0  0  0  0  0  0  0
    6.4211   -1.0378   -0.5679 C   0  0  0  0  0  0  0  0  0  0  0  0
   -2.2401    0.6312    2.3206 H   0  0  0  0  0  0  0  0  0  0  0  0
   -2.4619    2.0227    1.3167 H   0  0  0  0  0  0  0  0  0  0  0  0
   -0.8733    2.5726   -0.4978 H   0  0  0  0  0  0  0  0  0  0  0  0
   -0.3221   -0.8964    2.0042 H   0  0  0  0  0  0  0  0  0  0  0  0
    1.4490    2.3829   -1.2740 H   0  0  0  0  0  0  0  0  0  0  0  0
    1.9485   -1.1022    1.2613 H   0  0  0  0  0  0  0  0  0  0  0  0
   -2.9885   -1.6185    1.5932 H   0  0  0  0  0  0  0  0  0  0  0  0
   -3.5413    1.8503   -0.9093 H   0  0  0  0  0  0  0  0  0  0  0  0
    3.5042    1.2300   -1.1877 H   0  0  0  0  0  0  0  0  0  0  0  0
   -4.6351   -2.8038    0.1456 H   0  0  0  0  0  0  0  0  0  0  0  0
   -5.1630    0.5080   -2.2434 H   0  0  0  0  0  0  0  0  0  0  0  0
    6.6958   -0.9967    0.4904 H   0  0  0  0  0  0  0  0  0  0  0  0
    7.2758   -0.7099   -1.1654 H   0  0  0  0  0  0  0  0  0  0  0  0
    6.1583   -2.0585   -0.8612 H   0  0  0  0  0  0  0  0  0  0  0  0
  1 17  1  0  0  0  0
  1 18  1  0  0  0  0
  2 17  2  0  0  0  0
  3 10  1  0  0  0  0
  3 17  1  0  0  0  0
  3 27  1  0  0  0  0
  4 15  2  0  0  0  0
  4 16  1  0  0  0  0
  5  6  1  0  0  0  0
  5  7  1  0  0  0  0
  5 19  1  0  0  0  0
  5 20  1  0  0  0  0
  6  8  2  0  0  0  0
  6  9  1  0  0  0  0
  7 13  2  0  0  0  0
  7 14  1  0  0  0  0
  8 11  1  0  0  0  0
  8 21  1  0  0  0  0
  9 12  2  0  0  0  0
  9 22  1  0  0  0  0
 10 11  2  0  0  0  0
 10 12  1  0  0  0  0
 11 23  1  0  0  0  0
 12 24  1  0  0  0  0
 13 15  1  0  0  0  0
 13 25  1  0  0  0  0
 14 16  2  0  0  0  0
 14 26  1  0  0  0  0
 15 28  1  0  0  0  0
 16 29  1  0  0  0  0
 18 30  1  0  0  0  0
 18 31  1  0  0  0  0
 18 32  1  0  0  0  0
M  END
> <PUBCHEM_COMPOUND_CID>
673870

> <PUBCHEM_CONFORMER_RMSD>
0.6

> <PUBCHEM_CONFORMER_DIVERSEORDER>
1
18
6
17
14
3
19
26
7
24
15
5
28
2
12
27
4
16
25
20
13
21
22
23
8
10
11
9

> <PUBCHEM_MMFF94_PARTIAL_CHARGES>
27
1 -0.43
10 0.12
11 -0.15
12 -0.15
13 -0.15
14 -0.15
15 0.16
16 0.16
17 0.78
18 0.28
2 -0.57
21 0.15
22 0.15
23 0.15
24 0.15
25 0.15
26 0.15
27 0.37
28 0.15
29 0.15
3 -0.55
4 -0.62
5 0.29
6 -0.14
7 -0.14
8 -0.15
9 -0.15

> <PUBCHEM_EFFECTIVE_ROTOR_COUNT>
5

> <PUBCHEM_PHARMACOPHORE_FEATURES>
5
1 2 acceptor
1 3 donor
1 4 acceptor
6 4 7 13 14 15 16 rings
6 6 8 9 10 11 12 rings

> <PUBCHEM_HEAVY_ATOM_COUNT>
18

> <PUBCHEM_ATOM_DEF_STEREO_COUNT>
0

> <PUBCHEM_ATOM_UDEF_STEREO_COUNT>
0

> <PUBCHEM_BOND_DEF_STEREO_COUNT>
0

> <PUBCHEM_BOND_UDEF_STEREO_COUNT>
0

> <PUBCHEM_ISOTOPIC_ATOM_COUNT>
0

> <PUBCHEM_COMPONENT_COUNT>
1

> <PUBCHEM_CACTVS_TAUTO_COUNT>
2

> <PUBCHEM_CONFORMER_ID>
000A484E00000001

> <PUBCHEM_MMFF94_ENERGY>
49.4991

> <PUBCHEM_FEATURE_SELFOVERLAP>
25.371

> <PUBCHEM_SHAPE_FINGERPRINT>
105312 117 14562536175678633026
10803635 8 17967809448987413771
11046707 91 18202003217884510617
11315181 36 17989208135491417200
11796584 16 17917713478732927359
12251169 10 12535349030333644881
12555020 224 18040440984000579450
12596602 18 13758068610507539438
12633257 1 14476959042874633639
12644460 14 15482097401536994930
12670543 26 17240762848587615326
12670546 177 17894351085609193350
12892183 10 11671517706996734365
13288520 33 18060703870555502665
13675066 3 10447937178051552121
14123255 352 11746932096832914311
14251764 75 14421188334454434495
14576447 43 18408321099064753914
15188451 53 15123497156327120653
15716309 27 16415761916636512782
15880784 105 16558745749738455595
17834072 8 17966968322359738414
17870717 6 18408603660952975079
18186145 218 17385722534576730233
18222031 100 18413105057277927440
18769570 83 12685090397744032190
193927 3 17989218065466140671
19784866 170 10591773077215029000
19784866 240 18130507526598103983
200 152 18409168796511974088
20281389 69 11602823518949084670
20645477 56 12973609932368532001
20671657 53 18341896341914424705
20871999 31 18186798071963713425
21065199 12 11599742691847607237
21267235 1 18334300894467897827
21637258 2 17774995787004898726
21713013 43 18042675286571018815
21756936 100 8142078745631487888
221357 26 17968088755522332181
221490 88 18043539527883876435
22224240 67 11671777170166047429
22393880 68 17968085465208085499
23379529 103 18048603917297500747
23402539 116 18410299077491232344
23402655 69 17385719158326117141
23403322 49 18342455967689330543
23559900 14 18342169016038883616
26918003 58 14620796011827865003
270888 7 12324780398968279319
2838139 119 13984661473239805790
2916195 48 11314318264716271102
293599 30 11169912788443527900
3009799 131 17749384875929369788
351380 3 18202283619193510207
49783359 22 16917069936605549526
559249 180 18201721726534902725
7495541 125 16774074090348523232
76465 3 17632573894375869989

> <PUBCHEM_SHAPE_MULTIPOLES>
348.73
12.72
1.6
1.21
11.4
0.01
0.04
-6.87
-5.13
-0.62
-0.07
-0.8
0
-0.22

> <PUBCHEM_SHAPE_SELFOVERLAP>
741.205

> <PUBCHEM_SHAPE_VOLUME>
192.8

> <PUBCHEM_COORDINATE_TYPE>
2
5
10

$$$$
863482
  -OEChem-12051909403D

 29 31  0     0  0  0  0  0  0999 V2000
    0.1500   -1.6265    0.2473 S   0  0  0  0  0  0  0  0  0  0  0  0
   -3.2246    1.5851    0.1840 O   0  0  0  0  0  0  0  0  0  0  0  0
    5.1184   -0.1137   -0.1554 O   0  0  0  0  0  0  0  0  0  0  0  0
   -2.2367   -0.5556    0.2982 N   0  0  0  0  0  0  0  0  0  0  0  0
   -0.3332    0.9014    0.0778 N   0  0  0  0  0  0  0  0  0  0  0  0
   -4.6444   -0.2585    0.4096 C   0  0  0  0  0  0  0  0  0  0  0  0
   -5.0239   -1.3156   -0.5661 C   0  0  0  0  0  0  0  0  0  0  0  0
   -5.6591    0.0421   -0.6362 C   0  0  0  0  0  0  0  0  0  0  0  0
   -3.2896    0.3678    0.2836 C   0  0  0  0  0  0  0  0  0  0  0  0
   -0.8992   -0.2764    0.2021 C   0  0  0  0  0  0  0  0  0  0  0  0
    1.5022   -0.5686    0.0871 C   0  0  0  0  0  0  0  0  0  0  0  0
    1.0441    0.7503    0.0106 C   0  0  0  0  0  0  0  0  0  0  0  0
    2.8695   -0.8830    0.0330 C   0  0  0  0  0  0  0  0  0  0  0  0
    1.9904    1.7893   -0.1248 C   0  0  0  0  0  0  0  0  0  0  0  0
    3.7849    0.1640   -0.1013 C   0  0  0  0  0  0  0  0  0  0  0  0
    3.3532    1.4835   -0.1793 C   0  0  0  0  0  0  0  0  0  0  0  0
    5.4978   -1.4856   -0.0702 C   0  0  0  0  0  0  0  0  0  0  0  0
   -5.0070   -0.3582    1.4271 H   0  0  0  0  0  0  0  0  0  0  0  0
   -5.6315   -2.1383   -0.2091 H   0  0  0  0  0  0  0  0  0  0  0  0
   -4.3378   -1.5834   -1.3604 H   0  0  0  0  0  0  0  0  0  0  0  0
   -5.3866    0.6803   -1.4680 H   0  0  0  0  0  0  0  0  0  0  0  0
   -6.6939    0.1301   -0.3281 H   0  0  0  0  0  0  0  0  0  0  0  0
   -2.4637   -1.5420    0.3943 H   0  0  0  0  0  0  0  0  0  0  0  0
    3.1493   -1.9276    0.0984 H   0  0  0  0  0  0  0  0  0  0  0  0
    1.6640    2.8236   -0.1866 H   0  0  0  0  0  0  0  0  0  0  0  0
    4.0752    2.2895   -0.2835 H   0  0  0  0  0  0  0  0  0  0  0  0
    5.1139   -2.0639   -0.9176 H   0  0  0  0  0  0  0  0  0  0  0  0
    5.2173   -1.9229    0.8941 H   0  0  0  0  0  0  0  0  0  0  0  0
    6.5906   -1.5223   -0.1298 H   0  0  0  0  0  0  0  0  0  0  0  0
  1 10  1  0  0  0  0
  1 11  1  0  0  0  0
  2  9  2  0  0  0  0
  3 15  1  0  0  0  0
  3 17  1  0  0  0  0
  4  9  1  0  0  0  0
  4 10  1  0  0  0  0
  4 23  1  0  0  0  0
  5 10  2  0  0  0  0
  5 12  1  0  0  0  0
  6  7  1  0  0  0  0
  6  8  1  0  0  0  0
  6  9  1  0  0  0  0
  6 18  1  0  0  0  0
  7  8  1  0  0  0  0
  7 19  1  0  0  0  0
  7 20  1  0  0  0  0
  8 21  1  0  0  0  0
  8 22  1  0  0  0  0
 11 12  2  0  0  0  0
 11 13  1  0  0  0  0
 12 14  1  0  0  0  0
 13 15  2  0  0  0  0
 13 24  1  0  0  0  0
 14 16  2  0  0  0  0
 14 25  1  0  0  0  0
 15 16  1  0  0  0  0
 16 26  1  0  0  0  0
 17 27  1  0  0  0  0
 17 28  1  0  0  0  0
 17 29  1  0  0  0  0
M  END
> <PUBCHEM_COMPOUND_CID>
863482

> <PUBCHEM_CONFORMER_RMSD>
0.6

> <PUBCHEM_CONFORMER_DIVERSEORDER>
1
4
6
3
5
2

> <PUBCHEM_MMFF94_PARTIAL_CHARGES>
26
1 -0.08
10 0.44
11 0.04
12 0.23
13 -0.15
14 -0.15
15 0.08
16 -0.15
17 0.28
18 0.1
19 0.1
2 -0.57
20 0.1
21 0.1
22 0.1
23 0.37
24 0.15
25 0.15
26 0.15
3 -0.36
4 -0.49
5 -0.57
6 -0.1
7 -0.2
8 -0.2
9 0.63

> <PUBCHEM_EFFECTIVE_ROTOR_COUNT>
4.6

> <PUBCHEM_PHARMACOPHORE_FEATURES>
5
1 2 acceptor
1 3 acceptor
1 4 donor
5 1 5 10 11 12 rings
6 11 12 13 14 15 16 rings

> <PUBCHEM_HEAVY_ATOM_COUNT>
17

> <PUBCHEM_ATOM_DEF_STEREO_COUNT>
0

> <PUBCHEM_ATOM_UDEF_STEREO_COUNT>
0

> <PUBCHEM_BOND_DEF_STEREO_COUNT>
0

> <PUBCHEM_BOND_UDEF_STEREO_COUNT>
0

> <PUBCHEM_ISOTOPIC_ATOM_COUNT>
0

> <PUBCHEM_COMPONENT_COUNT>
1

> <PUBCHEM_CACTVS_TAUTO_COUNT>
3

> <PUBCHEM_CONFORMER_ID>
000D2CFA00000001

> <PUBCHEM_MMFF94_ENERGY>
43.8363

> <PUBCHEM_FEATURE_SELFOVERLAP>
25.443

> <PUBCHEM_SHAPE_FINGERPRINT>
10366900 7 17240202122942190881
11287383 113 14764341669380128019
11471102 20 18408042935518189376
12107183 9 17691689987346538675
12236239 1 18060701692943643563
12403260 363 18412546513370445929
13167823 11 18343018917426610615
13533116 47 17632580423143300554
13690532 89 18411420600863070266
13862211 1 18409446951922290930
14251764 18 18408601462267167250
15048467 5 11241970382144073335
15099037 51 18407762534288739878
15196674 1 18410576179932941681
15242439 84 17822010921509814835
17802600 8 18409728469595414881
17834072 33 18341612650412290279
17834072 8 18260269646502827854
17862501 102 18272370862518774899
200 152 18272931635593696569
20612939 158 18187090580885812420
20645477 70 18411984646307705654
21267235 1 18411145731229777083
21682296 61 18199194988274015502
21709351 56 18335134285252662733
23402539 116 18201717349678554005
23402655 69 18410569566379293901
23557571 272 16702027439576146049
23559900 14 18337387248638527073
265663 24 18202283623662206431
2871803 45 18260261945600027241
29717793 49 18131071523953918109
351380 180 18409448102656677273
3545911 37 18186521012566921371
4214541 1 18411700963612342089
42788 4 18409449193731279751
465052 167 18411986862368619950
4990 188 18130514075642476350
5104073 3 18412830196039222041
542803 24 16845860100350118753
58051976 378 18272653433208382127
59755656 215 18187643566314666239
602551 16 15482379971635433511
633830 44 17168421691749495995
69090 78 18342175604708391863
7495541 125 16845004723137448035
9971528 1 18260546762072272756
9981440 41 17330548164800770608
9999458 23 17748827449403916622

> <PUBCHEM_SHAPE_MULTIPOLES>
332
12.49
1.66
0.68
5.71
0.15
0.02
-2.61
1.75
-0.91
0.03
0.3
-0.04
-0.26

> <PUBCHEM_SHAPE_SELFOVERLAP>
702.361

> <PUBCHEM_SHAPE_VOLUME>
188.4

> <PUBCHEM_COORDINATE_TYPE>
2
5
10

$$$$
9942361
  -OEChem-12051909403D

 27 28  0     0  0  0  0  0  0999 V2000
    2.6662   -1.2188    0.2802 O   0  0  0  0  0  0  0  0  0  0  0  0
   -3.9128    0.5064   -0.2407 O   0  0  0  0  0  0  0  0  0  0  0  0
   -1.7234    1.0441   -0.0610 N   0  0  0  0  0  0  0  0  0  0  0  0
   -0.0489   -1.6508    0.2847 C   0  0  0  0  0  0  0  0  0  0  0  0
   -1.4912   -1.8328    0.7129 C   0  0  0  0  0  0  0  0  0  0  0  0
    0.4519   -0.2357    0.1661 C   0  0  0  0  0  0  0  0  0  0  0  0
   -2.4251   -1.3259   -0.3603 C   0  0  0  0  0  0  0  0  0  0  0  0
   -0.3156    0.9320    0.0299 C   0  0  0  0  0  0  0  0  0  0  0  0
    1.8632   -0.1121    0.1926 C   0  0  0  0  0  0  0  0  0  0  0  0
   -2.7348    0.1321   -0.1948 C   0  0  0  0  0  0  0  0  0  0  0  0
    0.3532    2.1771   -0.0182 C   0  0  0  0  0  0  0  0  0  0  0  0
    2.5026    1.1235    0.1266 C   0  0  0  0  0  0  0  0  0  0  0  0
    1.7427    2.2749    0.0285 C   0  0  0  0  0  0  0  0  0  0  0  0
    3.0721   -1.8141   -0.9465 C   0  0  0  0  0  0  0  0  0  0  0  0
    0.1098   -2.1619   -0.6730 H   0  0  0  0  0  0  0  0  0  0  0  0
    0.5518   -2.1811    1.0357 H   0  0  0  0  0  0  0  0  0  0  0  0
   -1.6706   -2.9056    0.8560 H   0  0  0  0  0  0  0  0  0  0  0  0
   -1.6793   -1.3445    1.6769 H   0  0  0  0  0  0  0  0  0  0  0  0
   -3.3754   -1.8685   -0.2793 H   0  0  0  0  0  0  0  0  0  0  0  0
   -2.0429   -1.4985   -1.3724 H   0  0  0  0  0  0  0  0  0  0  0  0
   -2.0624    2.0042   -0.0439 H   0  0  0  0  0  0  0  0  0  0  0  0
   -0.2149    3.1025   -0.1086 H   0  0  0  0  0  0  0  0  0  0  0  0
    3.5864    1.1904    0.1542 H   0  0  0  0  0  0  0  0  0  0  0  0
    2.2231    3.2474   -0.0196 H   0  0  0  0  0  0  0  0  0  0  0  0
    2.2317   -1.9411   -1.6360 H   0  0  0  0  0  0  0  0  0  0  0  0
    3.4946   -2.7986   -0.7271 H   0  0  0  0  0  0  0  0  0  0  0  0
    3.8458   -1.2013   -1.4194 H   0  0  0  0  0  0  0  0  0  0  0  0
  1  9  1  0  0  0  0
  1 14  1  0  0  0  0
  2 10  2  0  0  0  0
  3  8  1  0  0  0  0
  3 10  1  0  0  0  0
  3 21  1  0  0  0  0
  4  5  1  0  0  0  0
  4  6  1  0  0  0  0
  4 15  1  0  0  0  0
  4 16  1  0  0  0  0
  5  7  1  0  0  0  0
  5 17  1  0  0  0  0
  5 18  1  0  0  0  0
  6  8  2  0  0  0  0
  6  9  1  0  0  0  0
  7 10  1  0  0  0  0
  7 19  1  0  0  0  0
  7 20  1  0  0  0  0
  8 11  1  0  0  0  0
  9 12  2  0  0  0  0
 11 13  2  0  0  0  0
 11 22  1  0  0  0  0
 12 13  1  0  0  0  0
 12 23  1  0  0  0  0
 13 24  1  0  0  0  0
 14 25  1  0  0  0  0
 14 26  1  0  0  0  0
 14 27  1  0  0  0  0
M  END
> <PUBCHEM_COMPOUND_CID>
9942361

> <PUBCHEM_CONFORMER_RMSD>
0.6

> <PUBCHEM_CONFORMER_DIVERSEORDER>
1
2

> <PUBCHEM_MMFF94_PARTIAL_CHARGES>
17
1 -0.36
10 0.57
11 -0.15
12 -0.15
13 -0.15
14 0.28
2 -0.57
21 0.37
22 0.15
23 0.15
24 0.15
3 -0.55
4 0.14
6 -0.14
7 0.06
8 0.12
9 0.08

> <PUBCHEM_EFFECTIVE_ROTOR_COUNT>
1.8

> <PUBCHEM_PHARMACOPHORE_FEATURES>
5
1 1 acceptor
1 2 acceptor
1 3 donor
6 6 8 9 11 12 13 rings
7 3 4 5 6 7 8 10 rings

> <PUBCHEM_HEAVY_ATOM_COUNT>
14

> <PUBCHEM_ATOM_DEF_STEREO_COUNT>
0

> <PUBCHEM_ATOM_UDEF_STEREO_COUNT>
0

> <PUBCHEM_BOND_DEF_STEREO_COUNT>
0

> <PUBCHEM_BOND_UDEF_STEREO_COUNT>
0

> <PUBCHEM_ISOTOPIC_ATOM_COUNT>
0

> <PUBCHEM_COMPONENT_COUNT>
1

> <PUBCHEM_CACTVS_TAUTO_COUNT>
2

> <PUBCHEM_CONFORMER_ID>
0097B55900000001

> <PUBCHEM_MMFF94_ENERGY>
56.0673

> <PUBCHEM_FEATURE_SELFOVERLAP>
25.378

> <PUBCHEM_SHAPE_FINGERPRINT>
10608611 8 18264484164661054201
10967382 1 18409728465009985473
11206711 2 18118122467944199940
11471102 20 18409722955068156685
11680986 33 18410578430669475514
12524768 44 18336825402401821890
13140716 1 18409166623274307979
13380535 21 18191317163258617137
13380535 76 18192703673322889384
13571099 22 18343018891424457813
13897977 150 18337386170765122861
14325111 11 18337105778199415465
14648413 74 18264771128394771376
14911166 2 18336265635140655303
15219456 202 18338520853653239058
15442244 35 18412826854586196465
15536298 74 18343017813192507136
16945 1 18336823074540116483
17990270 104 18338796826892888002
18186145 218 18334287652709080429
193761 8 18193276522938655010
19591789 44 16685148561389097369
19973954 147 18264771137100737419
20201158 50 18338513152808460818
20588541 1 18337107968601217832
20645477 70 18411972590360840759
20871999 31 18194412082638280060
21501502 16 18265047118724534187
22802520 49 18338245949945037619
2334 1 18337109097897795123
23402539 116 18196361521086522446
23552423 10 18261672695995507378
23559900 14 18339929324793150772
2748010 2 18336265746693675779
53812653 166 18268987764230545648
63268167 104 18411702118657760689
7364860 26 18271243927978695848
81228 2 18051424976444560714
8809292 202 18333734619371298698
9709674 26 18265895933227767903

> <PUBCHEM_SHAPE_MULTIPOLES>
271.39
4.89
2.51
0.74
1.94
0.19
0.03
-0.71
0.76
-1.17
0.07
-0.1
-0.22
0.51

> <PUBCHEM_SHAPE_SELFOVERLAP>
574.064

> <PUBCHEM_SHAPE_VOLUME>
149.3

> <PUBCHEM_COORDINATE_TYPE>
2
5
10

$$$$
660844
  -OEChem-12051909403D

 16 16  0     0  0  0  0  0  0999 V2000
   -0.7298   -1.2375    0.3211 S   0  0  0  0  0  0  0  0  0  0  0  0
    2.3870   -0.1533   -0.5334 O   0  0  0  0  0  0  0  0  0  0  0  0
   -0.3674    1.2874    0.0791 N   0  0  0  0  0  0  0  0  0  0  0  0
   -1.7087    1.0753   -0.1878 N   0  0  0  0  0  0  0  0  0  0  0  0
   -3.2702   -0.7070   -0.3042 N   0  0  0  0  0  0  0  0  0  0  0  0
    1.6924    0.0468    0.6904 C   0  0  0  0  0  0  0  0  0  0  0  0
    0.2384    0.1657    0.3547 C   0  0  0  0  0  0  0  0  0  0  0  0
   -2.0288   -0.1978   -0.0959 C   0  0  0  0  0  0  0  0  0  0  0  0
    3.7871   -0.2797   -0.3240 C   0  0  0  0  0  0  0  0  0  0  0  0
    2.0354    0.9741    1.1640 H   0  0  0  0  0  0  0  0  0  0  0  0
    1.8799   -0.7872    1.3768 H   0  0  0  0  0  0  0  0  0  0  0  0
    4.1904    0.6300    0.1312 H   0  0  0  0  0  0  0  0  0  0  0  0
    4.2683   -0.4275   -1.2944 H   0  0  0  0  0  0  0  0  0  0  0  0
    4.0033   -1.1459    0.3087 H   0  0  0  0  0  0  0  0  0  0  0  0
   -4.0561   -0.1154   -0.5527 H   0  0  0  0  0  0  0  0  0  0  0  0
   -3.4618   -1.7000   -0.2207 H   0  0  0  0  0  0  0  0  0  0  0  0
  1  7  1  0  0  0  0
  1  8  1  0  0  0  0
  2  6  1  0  0  0  0
  2  9  1  0  0  0  0
  3  4  1  0  0  0  0
  3  7  2  0  0  0  0
  4  8  2  0  0  0  0
  5  8  1  0  0  0  0
  5 15  1  0  0  0  0
  5 16  1  0  0  0  0
  6  7  1  0  0  0  0
  6 10  1  0  0  0  0
  6 11  1  0  0  0  0
  9 12  1  0  0  0  0
  9 13  1  0  0  0  0
  9 14  1  0  0  0  0
M  END
> <PUBCHEM_COMPOUND_CID>
660844

> <PUBCHEM_CONFORMER_RMSD>
0.4

> <PUBCHEM_CONFORMER_DIVERSEORDER>
2
8
6
5
9
7
1
3
4

> <PUBCHEM_MMFF94_PARTIAL_CHARGES>
11
1 -0.08
15 0.4
16 0.4
2 -0.56
3 -0.34
4 -0.34
5 -0.88
6 0.46
7 0.2
8 0.46
9 0.28

> <PUBCHEM_EFFECTIVE_ROTOR_COUNT>
2

> <PUBCHEM_PHARMACOPHORE_FEATURES>
5
1 2 acceptor
1 3 acceptor
1 5 donor
3 4 5 8 cation
5 1 3 4 7 8 rings

> <PUBCHEM_HEAVY_ATOM_COUNT>
9

> <PUBCHEM_ATOM_DEF_STEREO_COUNT>
0

> <PUBCHEM_ATOM_UDEF_STEREO_COUNT>
0

> <PUBCHEM_BOND_DEF_STEREO_COUNT>
0

> <PUBCHEM_BOND_UDEF_STEREO_COUNT>
0

> <PUBCHEM_ISOTOPIC_ATOM_COUNT>
0

> <PUBCHEM_COMPONENT_COUNT>
1

> <PUBCHEM_CACTVS_TAUTO_COUNT>
2

> <PUBCHEM_CONFORMER_ID>
000A156C00000002

> <PUBCHEM_MMFF94_ENERGY>
12.1559

> <PUBCHEM_FEATURE_SELFOVERLAP>
25.372

> <PUBCHEM_SHAPE_FINGERPRINT>
11062470 55 13973967601319557578
12897270 3 18334576845504696918
14325111 11 18336547123202487330
16714656 1 18408885139702277059
20201158 50 18131355202391445102
21040471 1 18049428258738334809
21293036 1 18186800309288305223
23552423 10 17898281706471670579
29004967 10 16558749009776466466
369184 2 10952047831890473450

> <PUBCHEM_SHAPE_MULTIPOLES>
168.25
5.05
1.13
0.73
2.89
0.04
0.05
-0.85
-1.15
-0.52
0.04
0.18
-0.04
0.06

> <PUBCHEM_SHAPE_SELFOVERLAP>
322.23

> <PUBCHEM_SHAPE_VOLUME>
105.5

> <PUBCHEM_COORDINATE_TYPE>
2
5
10

$$$$
7063878
  -OEChem-12051909403D

 24 25  0     0  0  0  0  0  0999 V2000
    2.9761    0.0200   -0.3651 S   0  0  0  0  0  0  0  0  0  0  0  0
    2.8067   -1.2425   -1.0609 O   0  0  0  0  0  0  0  0  0  0  0  0
    2.7109    1.2798   -1.0352 O   0  0  0  0  0  0  0  0  0  0  0  0
   -0.1539    1.0611    0.5545 N   0  0  0  0  0  0  0  0  0  0  0  0
   -0.1430   -1.1610    0.5105 N   0  0  0  0  0  0  0  0  0  0  0  0
    1.9989   -0.0321    1.1106 C   0  0  0  0  0  0  0  0  0  0  0  0
    0.5759   -0.0821    0.7262 C   0  0  0  0  0  0  0  0  0  0  0  0
   -1.4285    0.6956    0.2048 C   0  0  0  0  0  0  0  0  0  0  0  0
   -1.3961   -0.6959    0.1841 C   0  0  0  0  0  0  0  0  0  0  0  0
    4.6411    0.0769    0.2531 C   0  0  0  0  0  0  0  0  0  0  0  0
   -2.5721    1.4401   -0.0864 C   0  0  0  0  0  0  0  0  0  0  0  0
   -2.5648   -1.4032   -0.1443 C   0  0  0  0  0  0  0  0  0  0  0  0
   -3.7262    0.7199   -0.4114 C   0  0  0  0  0  0  0  0  0  0  0  0
   -3.7250   -0.6766   -0.4404 C   0  0  0  0  0  0  0  0  0  0  0  0
    2.2833   -0.9267    1.6719 H   0  0  0  0  0  0  0  0  0  0  0  0
    2.2314    0.8555    1.7061 H   0  0  0  0  0  0  0  0  0  0  0  0
    0.1833    2.0084    0.6640 H   0  0  0  0  0  0  0  0  0  0  0  0
    5.3204    0.1108   -0.6012 H   0  0  0  0  0  0  0  0  0  0  0  0
    4.7604    0.9747    0.8621 H   0  0  0  0  0  0  0  0  0  0  0  0
    4.8281   -0.8211    0.8446 H   0  0  0  0  0  0  0  0  0  0  0  0
   -2.5706    2.5239   -0.0632 H   0  0  0  0  0  0  0  0  0  0  0  0
   -2.5741   -2.4882   -0.1697 H   0  0  0  0  0  0  0  0  0  0  0  0
   -4.6414    1.2581   -0.6457 H   0  0  0  0  0  0  0  0  0  0  0  0
   -4.6377   -1.2085   -0.6965 H   0  0  0  0  0  0  0  0  0  0  0  0
  1  2  2  0  0  0  0
  1  3  2  0  0  0  0
  1  6  1  0  0  0  0
  1 10  1  0  0  0  0
  4  7  1  0  0  0  0
  4  8  1  0  0  0  0
  4 17  1  0  0  0  0
  5  7  2  0  0  0  0
  5  9  1  0  0  0  0
  6  7  1  0  0  0  0
  6 15  1  0  0  0  0
  6 16  1  0  0  0  0
  8  9  1  0  0  0  0
  8 11  2  0  0  0  0
  9 12  2  0  0  0  0
 10 18  1  0  0  0  0
 10 19  1  0  0  0  0
 10 20  1  0  0  0  0
 11 13  1  0  0  0  0
 11 21  1  0  0  0  0
 12 14  1  0  0  0  0
 12 22  1  0  0  0  0
 13 14  2  0  0  0  0
 13 23  1  0  0  0  0
 14 24  1  0  0  0  0
M  END
> <PUBCHEM_COMPOUND_CID>
7063878

> <PUBCHEM_CONFORMER_RMSD>
0.6

> <PUBCHEM_CONFORMER_DIVERSEORDER>
1
5
2
3
4
6

> <PUBCHEM_MMFF94_PARTIAL_CHARGES>
19
1 1.09
10 0.11
11 -0.15
12 -0.15
13 -0.15
14 -0.15
17 0.27
2 -0.65
21 0.15
22 0.15
23 0.15
24 0.15
3 -0.65
4 0.03
5 -0.57
6 0.29
7 0.01
8 -0.15
9 0.23

> <PUBCHEM_EFFECTIVE_ROTOR_COUNT>
2

> <PUBCHEM_PHARMACOPHORE_FEATURES>
6
1 2 acceptor
1 3 acceptor
1 4 donor
3 4 5 7 cation
5 4 5 7 8 9 rings
6 8 9 11 12 13 14 rings

> <PUBCHEM_HEAVY_ATOM_COUNT>
14

> <PUBCHEM_ATOM_DEF_STEREO_COUNT>
0

> <PUBCHEM_ATOM_UDEF_STEREO_COUNT>
0

> <PUBCHEM_BOND_DEF_STEREO_COUNT>
0

> <PUBCHEM_BOND_UDEF_STEREO_COUNT>
0

> <PUBCHEM_ISOTOPIC_ATOM_COUNT>
0

> <PUBCHEM_COMPONENT_COUNT>
1

> <PUBCHEM_CACTVS_TAUTO_COUNT>
1

> <PUBCHEM_CONFORMER_ID>
006BC94600000001

> <PUBCHEM_MMFF94_ENERGY>
19.1115

> <PUBCHEM_FEATURE_SELFOVERLAP>
30.57

> <PUBCHEM_SHAPE_FINGERPRINT>
10465860 71 18340778099538385228
12032990 46 18271242824293413651
12119455 92 14129052621168897826
12162725 195 18259989296770560604
13296908 3 17489582385423863281
14252887 29 15051739702850879798
14911166 2 18340476820973692837
14993402 34 17967527982705756125
15219456 202 17774429594440969856
15775835 57 17458345234461956588
16945 1 18339067251372303499
17802600 8 17749382672342173860
18186145 218 17821727242977471942
19107657 47 15140955158454804052
200 152 16702018669189474266
20201158 50 17989208144408295214
20279233 1 17775563147958408506
20361792 2 14836119944488385480
20645476 183 18040710381323629155
20645477 56 18412825755254241601
20645477 70 17275106072563906166
20871999 31 18411973689893509039
21119208 17 18259420819114977972
21501925 9 9871451128765086953
22485316 2 17418372493323477078
23402539 116 18408877434979341028
23557571 272 18272933804278244784
23559900 14 18272930497654255506
2748010 2 17978213183039339507
474 4 16951694777735764972
7364860 26 18056191616479905888
9709674 26 18341619226176564766
9981440 41 17031075256875660840

> <PUBCHEM_SHAPE_MULTIPOLES>
270.26
7.62
1.37
0.93
3.41
0.01
-0.02
0.17
-1.51
-0.68
-0.16
0.53
-0.01
-0.02

> <PUBCHEM_SHAPE_SELFOVERLAP>
567.812

> <PUBCHEM_SHAPE_VOLUME>
154.7

> <PUBCHEM_COORDINATE_TYPE>
2
5
10

$$$$
1530178
  -OEChem-12051909403D

 26 26  0     0  0  0  0  0  0999 V2000
    2.8411    0.8010   -0.1026 S   0  0  0  0  0  0  0  0  0  0  0  0
   -4.0237    1.6146   -0.2530 F   0  0  0  0  0  0  0  0  0  0  0  0
    3.3599    1.7304    0.8818 O   0  0  0  0  0  0  0  0  0  0  0  0
    2.1299    1.2797   -1.2724 O   0  0  0  0  0  0  0  0  0  0  0  0
    1.8817   -0.3823    0.6680 N   0  0  0  0  0  0  0  0  0  0  0  0
    0.1379   -2.1035    0.4133 C   0  0  0  0  0  0  0  0  0  0  0  0
    1.4859   -1.5877   -0.0825 C   0  0  0  0  0  0  0  0  0  0  0  0
   -0.9795   -1.1050    0.2345 C   0  0  0  0  0  0  0  0  0  0  0  0
   -1.2530   -0.2020    1.2496 C   0  0  0  0  0  0  0  0  0  0  0  0
   -1.7122   -1.1089   -0.9421 C   0  0  0  0  0  0  0  0  0  0  0  0
    4.1944   -0.1997   -0.6765 C   0  0  0  0  0  0  0  0  0  0  0  0
   -2.2858    0.7207    1.0841 C   0  0  0  0  0  0  0  0  0  0  0  0
   -2.7449   -0.1861   -1.1078 C   0  0  0  0  0  0  0  0  0  0  0  0
   -3.0317    0.7289   -0.0945 C   0  0  0  0  0  0  0  0  0  0  0  0
   -0.1129   -3.0321   -0.1152 H   0  0  0  0  0  0  0  0  0  0  0  0
    0.2102   -2.3783    1.4741 H   0  0  0  0  0  0  0  0  0  0  0  0
    2.2485   -2.3602    0.0614 H   0  0  0  0  0  0  0  0  0  0  0  0
    1.4175   -1.3640   -1.1527 H   0  0  0  0  0  0  0  0  0  0  0  0
    2.0910   -0.5666    1.6581 H   0  0  0  0  0  0  0  0  0  0  0  0
   -0.6815   -0.2009    2.1733 H   0  0  0  0  0  0  0  0  0  0  0  0
   -1.4947   -1.8160   -1.7375 H   0  0  0  0  0  0  0  0  0  0  0  0
    3.8393   -0.9107   -1.4237 H   0  0  0  0  0  0  0  0  0  0  0  0
    4.9306    0.4668   -1.1323 H   0  0  0  0  0  0  0  0  0  0  0  0
    4.6441   -0.7115    0.1764 H   0  0  0  0  0  0  0  0  0  0  0  0
   -2.5100    1.4326    1.8730 H   0  0  0  0  0  0  0  0  0  0  0  0
   -3.3256   -0.1792   -2.0254 H   0  0  0  0  0  0  0  0  0  0  0  0
  1  3  2  0  0  0  0
  1  4  2  0  0  0  0
  1  5  1  0  0  0  0
  1 11  1  0  0  0  0
  2 14  1  0  0  0  0
  5  7  1  0  0  0  0
  5 19  1  0  0  0  0
  6  7  1  0  0  0  0
  6  8  1  0  0  0  0
  6 15  1  0  0  0  0
  6 16  1  0  0  0  0
  7 17  1  0  0  0  0
  7 18  1  0  0  0  0
  8  9  2  0  0  0  0
  8 10  1  0  0  0  0
  9 12  1  0  0  0  0
  9 20  1  0  0  0  0
 10 13  2  0  0  0  0
 10 21  1  0  0  0  0
 11 22  1  0  0  0  0
 11 23  1  0  0  0  0
 11 24  1  0  0  0  0
 12 14  2  0  0  0  0
 12 25  1  0  0  0  0
 13 14  1  0  0  0  0
 13 26  1  0  0  0  0
M  END
> <PUBCHEM_COMPOUND_CID>
1530178

> <PUBCHEM_CONFORMER_RMSD>
0.6

> <PUBCHEM_CONFORMER_DIVERSEORDER>
4
37
48
29
8
54
34
49
55
61
15
28
62
24
27
31
36
50
47
22
58
53
38
45
9
26
51
43
42
52
2
33
23
46
64
25
39
35
10
1
3
30
11
44
14
5
41
17
56
40
19
59
16
18
21
13
63
60
57
12
32
6
20
7

> <PUBCHEM_MMFF94_PARTIAL_CHARGES>
19
1 1.33
10 -0.15
11 0.11
12 -0.15
13 -0.15
14 0.19
19 0.42
2 -0.19
20 0.15
21 0.15
25 0.15
26 0.15
3 -0.65
4 -0.65
5 -0.91
6 0.14
7 0.36
8 -0.14
9 -0.15

> <PUBCHEM_EFFECTIVE_ROTOR_COUNT>
4

> <PUBCHEM_PHARMACOPHORE_FEATURES>
4
1 3 acceptor
1 4 acceptor
1 5 donor
6 8 9 10 12 13 14 rings

> <PUBCHEM_HEAVY_ATOM_COUNT>
14

> <PUBCHEM_ATOM_DEF_STEREO_COUNT>
0

> <PUBCHEM_ATOM_UDEF_STEREO_COUNT>
0

> <PUBCHEM_BOND_DEF_STEREO_COUNT>
0

> <PUBCHEM_BOND_UDEF_STEREO_COUNT>
0

> <PUBCHEM_ISOTOPIC_ATOM_COUNT>
0

> <PUBCHEM_COMPONENT_COUNT>
1

> <PUBCHEM_CACTVS_TAUTO_COUNT>
1

> <PUBCHEM_CONFORMER_ID>
0017594200000004

> <PUBCHEM_MMFF94_ENERGY>
20.6849

> <PUBCHEM_FEATURE_SELFOVERLAP>
20.315

> <PUBCHEM_SHAPE_FINGERPRINT>
10618630 7 10015592709240857898
11769659 78 9150874084684649073
12202030 40 13398045657227455775
12251169 10 12613042690277733274
12633257 1 16153426164120738168
13618510 140 18335426737733206308
14252887 29 8358255960436195380
15276787 5 15574975274559486632
15775835 57 18341894073712347173
18186145 218 18130516313768778378
19107657 9 18260274065860573900
19766037 51 11887676229312699692
20281407 28 9943535119455965658
20361792 2 10303815375683901354
20442098 301 11458420254294296672
20645464 45 16950568770222345131
20645476 183 18059849528931259959
20653085 51 18412546496306510755
20671657 1 18338510833674392250
20671657 53 13183020705150018506
20711985 344 13901360187228277699
20871998 22 8790890696105791250
21028194 46 18338805614501698090
21475661 188 17169822276838868533
21524375 3 18408887338704868858
23557571 272 16700587165032446291
23559900 14 17846781819826529242
25 1 18335703801910444234
27216 239 17751368488951994664
305870 269 18261109660449072202
4028521 119 18272651255274827936
474 4 18186523176845388229
5262128 65 16629975433227594008
526903 126 18057879328268424777
74978 22 18262242252151909958
81228 2 17614290282942888242
9882013 296 10953744430293778182

> <PUBCHEM_SHAPE_MULTIPOLES>
267.97
6.84
1.85
1.18
2.73
0.26
0.02
-3.5
1.23
0.23
-0.11
-0.23
-0.11
-0.06

> <PUBCHEM_SHAPE_SELFOVERLAP>
530.625

> <PUBCHEM_SHAPE_VOLUME>
161.8

> <PUBCHEM_COORDINATE_TYPE>
2
5
10

$$$$
126787150
  -OEChem-12051909403D

 26 26  0     1  0  0  0  0  0999 V2000
    1.1734    2.2058   -0.3113 F   0  0  0  0  0  0  0  0  0  0  0  0
   -2.2521   -0.8891   -1.8649 O   0  0  0  0  0  0  0  0  0  0  0  0
   -0.8391    0.4315    0.2159 N   0  0  3  0  0  0  0  0  0  0  0  0
    0.7213   -1.3428    0.3298 N   0  0  0  0  0  0  0  0  0  0  0  0
   -1.9353   -0.4775    0.4857 C   0  0  2  0  0  0  0  0  0  0  0  0
   -2.9175   -0.4584   -0.6831 C   0  0  0  0  0  0  0  0  0  0  0  0
   -2.6136   -0.0571    1.7831 C   0  0  0  0  0  0  0  0  0  0  0  0
    0.4805   -0.0263    0.1383 C   0  0  0  0  0  0  0  0  0  0  0  0
   -1.1435    1.8467    0.0173 C   0  0  0  0  0  0  0  0  0  0  0  0
    1.4647    0.9112   -0.1308 C   0  0  0  0  0  0  0  0  0  0  0  0
    2.7807    0.4690   -0.2088 C   0  0  0  0  0  0  0  0  0  0  0  0
    2.0122   -1.7353    0.2465 C   0  0  0  0  0  0  0  0  0  0  0  0
    3.0682   -0.8779   -0.0177 C   0  0  0  0  0  0  0  0  0  0  0  0
   -1.5895   -1.5102    0.6095 H   0  0  0  0  0  0  0  0  0  0  0  0
   -3.7419   -1.1539   -0.4900 H   0  0  0  0  0  0  0  0  0  0  0  0
   -3.3526    0.5270   -0.8723 H   0  0  0  0  0  0  0  0  0  0  0  0
   -3.1198    0.9106    1.7119 H   0  0  0  0  0  0  0  0  0  0  0  0
   -1.8887    0.0045    2.6026 H   0  0  0  0  0  0  0  0  0  0  0  0
   -3.3728   -0.7942    2.0678 H   0  0  0  0  0  0  0  0  0  0  0  0
   -2.2123    2.0639    0.1130 H   0  0  0  0  0  0  0  0  0  0  0  0
   -0.8824    2.1752   -0.9952 H   0  0  0  0  0  0  0  0  0  0  0  0
   -0.6676    2.4708    0.7824 H   0  0  0  0  0  0  0  0  0  0  0  0
   -2.9106   -0.8856   -2.5804 H   0  0  0  0  0  0  0  0  0  0  0  0
    3.5804    1.1730   -0.4178 H   0  0  0  0  0  0  0  0  0  0  0  0
    2.1832   -2.7952    0.4033 H   0  0  0  0  0  0  0  0  0  0  0  0
    4.0866   -1.2449   -0.0738 H   0  0  0  0  0  0  0  0  0  0  0  0
  1 10  1  0  0  0  0
  2  6  1  0  0  0  0
  2 23  1  0  0  0  0
  3  5  1  0  0  0  0
  3  8  1  0  0  0  0
  3  9  1  0  0  0  0
  4  8  1  0  0  0  0
  4 12  2  0  0  0  0
  5  6  1  0  0  0  0
  5  7  1  0  0  0  0
  5 14  1  0  0  0  0
  6 15  1  0  0  0  0
  6 16  1  0  0  0  0
  7 17  1  0  0  0  0
  7 18  1  0  0  0  0
  7 19  1  0  0  0  0
  8 10  2  0  0  0  0
  9 20  1  0  0  0  0
  9 21  1  0  0  0  0
  9 22  1  0  0  0  0
 10 11  1  0  0  0  0
 11 13  2  0  0  0  0
 11 24  1  0  0  0  0
 12 13  1  0  0  0  0
 12 25  1  0  0  0  0
 13 26  1  0  0  0  0
M  END
> <PUBCHEM_COMPOUND_CID>
126787150

> <PUBCHEM_CONFORMER_RMSD>
0.6

> <PUBCHEM_CONFORMER_DIVERSEORDER>
1
20
22
19
33
27
32
25
12
35
2
36
8
39
11
26
41
28
18
10
17
21
37
9
34
5
40
6
24
31
16
15
38
3
4
30
13
7
23
14
29

> <PUBCHEM_MMFF94_PARTIAL_CHARGES>
16
1 -0.19
10 0.19
11 -0.15
12 0.16
13 -0.15
2 -0.68
23 0.4
24 0.15
25 0.15
26 0.15
3 -0.84
4 -0.62
5 0.37
6 0.28
8 0.41
9 0.37

> <PUBCHEM_EFFECTIVE_ROTOR_COUNT>
3

> <PUBCHEM_PHARMACOPHORE_FEATURES>
5
1 2 acceptor
1 2 donor
1 3 cation
1 4 acceptor
6 4 8 10 11 12 13 rings

> <PUBCHEM_HEAVY_ATOM_COUNT>
13

> <PUBCHEM_ATOM_DEF_STEREO_COUNT>
1

> <PUBCHEM_ATOM_UDEF_STEREO_COUNT>
0

> <PUBCHEM_BOND_DEF_STEREO_COUNT>
0

> <PUBCHEM_BOND_UDEF_STEREO_COUNT>
0

> <PUBCHEM_ISOTOPIC_ATOM_COUNT>
0

> <PUBCHEM_COMPONENT_COUNT>
1

> <PUBCHEM_CACTVS_TAUTO_COUNT>
1

> <PUBCHEM_CONFORMER_ID>
078E9E4E00000001

> <PUBCHEM_MMFF94_ENERGY>
45.6968

> <PUBCHEM_FEATURE_SELFOVERLAP>
25.372

> <PUBCHEM_SHAPE_FINGERPRINT>
11206711 2 18261958448970739268
12423570 1 17987532423920085835
12897270 3 18334573559596226686
12932764 1 18202568349913387896
14128692 85 18131342033710245214
15775835 57 18131639988418409512
16945 1 18336269024033141658
17844478 74 17531261572893146995
18534176 82 16588020229985446455
20201158 50 18113898260276696795
20871998 184 18054513499758179964
23552423 10 18408044017491303820
25 1 17534045394795986005
2748010 2 18264490577173515924
3248919 1 17894632526373884392
5084963 1 18202278121634981474
63268167 104 18339358664286145424
77492 1 17989212568087343195
8030462 33 18334017151120635854
81228 2 17899972738449783024

> <PUBCHEM_SHAPE_MULTIPOLES>
244.43
4.75
1.75
1.15
0.13
0.62
-0.08
-1.17
-0.06
0.63
-0.1
-1.3
-0.29
-0.4

> <PUBCHEM_SHAPE_SELFOVERLAP>
499.327

> <PUBCHEM_SHAPE_VOLUME>
142.6

> <PUBCHEM_COORDINATE_TYPE>
2
5
10

$$$$
43582286
  -OEChem-12051909403D

 23 24  0     0  0  0  0  0  0999 V2000
   -0.0318   -2.2326   -0.2244 O   0  0  0  0  0  0  0  0  0  0  0  0
   -1.2120   -0.2400   -0.0557 N   0  0  0  0  0  0  0  0  0  0  0  0
    3.2141    0.3577    0.5846 N   0  0  0  0  0  0  0  0  0  0  0  0
    2.9755    1.0935   -0.5145 N   0  0  0  0  0  0  0  0  0  0  0  0
   -2.7446    1.4647    0.4917 C   0  0  0  0  0  0  0  0  0  0  0  0
   -3.4978    0.3179   -0.1703 C   0  0  0  0  0  0  0  0  0  0  0  0
   -1.3043    1.2134    0.0673 C   0  0  0  0  0  0  0  0  0  0  0  0
   -2.5339   -0.8489   -0.0214 C   0  0  0  0  0  0  0  0  0  0  0  0
   -0.0598   -1.0079   -0.1207 C   0  0  0  0  0  0  0  0  0  0  0  0
    1.2313   -0.3056   -0.0476 C   0  0  0  0  0  0  0  0  0  0  0  0
    2.2005   -0.4962    0.9070 C   0  0  0  0  0  0  0  0  0  0  0  0
    1.7628    0.6840   -0.8961 C   0  0  0  0  0  0  0  0  0  0  0  0
   -3.1083    2.4494    0.1861 H   0  0  0  0  0  0  0  0  0  0  0  0
   -2.8345    1.3866    1.5819 H   0  0  0  0  0  0  0  0  0  0  0  0
   -4.4707    0.1226    0.2885 H   0  0  0  0  0  0  0  0  0  0  0  0
   -3.6559    0.5424   -1.2320 H   0  0  0  0  0  0  0  0  0  0  0  0
   -1.1014    1.6466   -0.9179 H   0  0  0  0  0  0  0  0  0  0  0  0
   -0.5814    1.5996    0.7910 H   0  0  0  0  0  0  0  0  0  0  0  0
   -2.6483   -1.3450    0.9489 H   0  0  0  0  0  0  0  0  0  0  0  0
   -2.6369   -1.5964   -0.8136 H   0  0  0  0  0  0  0  0  0  0  0  0
    2.2613   -1.1465    1.7681 H   0  0  0  0  0  0  0  0  0  0  0  0
    1.3220    1.1237   -1.7795 H   0  0  0  0  0  0  0  0  0  0  0  0
    4.0934    0.4896    1.0687 H   0  0  0  0  0  0  0  0  0  0  0  0
  1  9  2  0  0  0  0
  2  7  1  0  0  0  0
  2  8  1  0  0  0  0
  2  9  1  0  0  0  0
  3  4  1  0  0  0  0
  3 11  1  0  0  0  0
  3 23  1  0  0  0  0
  4 12  2  0  0  0  0
  5  6  1  0  0  0  0
  5  7  1  0  0  0  0
  5 13  1  0  0  0  0
  5 14  1  0  0  0  0
  6  8  1  0  0  0  0
  6 15  1  0  0  0  0
  6 16  1  0  0  0  0
  7 17  1  0  0  0  0
  7 18  1  0  0  0  0
  8 19  1  0  0  0  0
  8 20  1  0  0  0  0
  9 10  1  0  0  0  0
 10 11  2  0  0  0  0
 10 12  1  0  0  0  0
 11 21  1  0  0  0  0
 12 22  1  0  0  0  0
M  END
> <PUBCHEM_COMPOUND_CID>
43582286

> <PUBCHEM_CONFORMER_RMSD>
0.6

> <PUBCHEM_CONFORMER_DIVERSEORDER>
1
2

> <PUBCHEM_MMFF94_PARTIAL_CHARGES>
13
1 -0.57
10 -0.09
11 -0.3
12 0.14
2 -0.66
21 0.15
22 0.15
23 0.27
3 0.3
4 -0.71
7 0.3
8 0.3
9 0.72

> <PUBCHEM_EFFECTIVE_ROTOR_COUNT>
3

> <PUBCHEM_PHARMACOPHORE_FEATURES>
5
1 1 acceptor
1 3 donor
1 4 acceptor
5 2 5 6 7 8 rings
5 3 4 10 11 12 rings

> <PUBCHEM_HEAVY_ATOM_COUNT>
12

> <PUBCHEM_ATOM_DEF_STEREO_COUNT>
0

> <PUBCHEM_ATOM_UDEF_STEREO_COUNT>
0

> <PUBCHEM_BOND_DEF_STEREO_COUNT>
0

> <PUBCHEM_BOND_UDEF_STEREO_COUNT>
0

> <PUBCHEM_ISOTOPIC_ATOM_COUNT>
0

> <PUBCHEM_COMPONENT_COUNT>
1

> <PUBCHEM_CACTVS_TAUTO_COUNT>
3

> <PUBCHEM_CONFORMER_ID>
0299034E00000001

> <PUBCHEM_MMFF94_ENERGY>
20.1713

> <PUBCHEM_FEATURE_SELFOVERLAP>
25.371

> <PUBCHEM_SHAPE_FINGERPRINT>
10219947 1 18040151790524103644
10465860 228 18125167034806668337
12162725 195 18334574624927561625
12251169 10 18040714744788303577
12932764 1 17060334119740069583
13380535 76 18409446956143340147
13764800 53 18342192050354264689
14144814 61 18333449841559248136
14325111 11 18411138026031840389
14390081 3 18202000993386843825
14897335 6 18340763724741540877
15310529 11 13614245871207460595
15775835 57 18334861623158582712
16945 1 18271807981374650407
17846911 113 18342170072874813369
18186145 218 17346888844376223826
20361792 2 8718540584645754211
21028194 46 18413389817287298154
21524375 3 18411416202489732330
230 275 18341332180273303910
23402539 116 18201988962967092228
23463225 33 18262233326766796210
23552423 10 18195248811066391663
2748010 2 18267313036391283151
305870 269 18337670793689299330
3248919 1 18409445860741783979
369184 2 17022621970661580065
5084963 1 18201726106647333054
57812782 119 16298383561239703057
7364860 26 17985267361353327495

> <PUBCHEM_SHAPE_MULTIPOLES>
226.14
5.4
1.57
0.81
0.52
0.41
0.02
-1.73
0.39
0.34
-0.07
-0.33
-0.08
-0.43

> <PUBCHEM_SHAPE_SELFOVERLAP>
476.316

> <PUBCHEM_SHAPE_VOLUME>
129.8

> <PUBCHEM_COORDINATE_TYPE>
2
5
10

$$$$
757898
  -OEChem-12051909403D

 35 37  0     0  0  0  0  0  0999 V2000
   -6.2335    0.2945    0.1116 F   0  0  0  0  0  0  0  0  0  0  0  0
    4.1500   -1.5515   -0.5020 O   0  0  0  0  0  0  0  0  0  0  0  0
    2.1917   -0.3675   -0.0739 N   0  0  0  0  0  0  0  0  0  0  0  0
   -0.6904   -0.1237   -0.0634 N   0  0  0  0  0  0  0  0  0  0  0  0
    4.3953    0.4589    0.6719 C   0  0  0  0  0  0  0  0  0  0  0  0
    4.8239    1.6514   -0.1097 C   0  0  0  0  0  0  0  0  0  0  0  0
    5.8245    0.6031    0.2802 C   0  0  0  0  0  0  0  0  0  0  0  0
    3.5721   -0.5819   -0.0180 C   0  0  0  0  0  0  0  0  0  0  0  0
    1.5228    0.7961    0.5103 C   0  0  0  0  0  0  0  0  0  0  0  0
    1.3375   -1.3425   -0.7453 C   0  0  0  0  0  0  0  0  0  0  0  0
    0.1569    1.0702   -0.1190 C   0  0  0  0  0  0  0  0  0  0  0  0
   -0.0400   -1.4370   -0.0934 C   0  0  0  0  0  0  0  0  0  0  0  0
   -2.0788   -0.0191   -0.0200 C   0  0  0  0  0  0  0  0  0  0  0  0
   -2.7555    1.0651   -0.6272 C   0  0  0  0  0  0  0  0  0  0  0  0
   -2.8710   -0.9924    0.6338 C   0  0  0  0  0  0  0  0  0  0  0  0
   -4.1458    1.1701   -0.5831 C   0  0  0  0  0  0  0  0  0  0  0  0
   -4.2612   -0.8874    0.6778 C   0  0  0  0  0  0  0  0  0  0  0  0
   -4.8986    0.1938    0.0694 C   0  0  0  0  0  0  0  0  0  0  0  0
    4.1679    0.6038    1.7234 H   0  0  0  0  0  0  0  0  0  0  0  0
    4.8661    2.6044    0.4033 H   0  0  0  0  0  0  0  0  0  0  0  0
    4.5482    1.7191   -1.1550 H   0  0  0  0  0  0  0  0  0  0  0  0
    6.2342   -0.0104   -0.5125 H   0  0  0  0  0  0  0  0  0  0  0  0
    6.5383    0.8539    1.0560 H   0  0  0  0  0  0  0  0  0  0  0  0
    2.1536    1.6837    0.4149 H   0  0  0  0  0  0  0  0  0  0  0  0
    1.4106    0.5864    1.5812 H   0  0  0  0  0  0  0  0  0  0  0  0
    1.8209   -2.3254   -0.7497 H   0  0  0  0  0  0  0  0  0  0  0  0
    1.2462   -1.0186   -1.7895 H   0  0  0  0  0  0  0  0  0  0  0  0
   -0.3035    1.9045    0.4242 H   0  0  0  0  0  0  0  0  0  0  0  0
    0.2817    1.3753   -1.1653 H   0  0  0  0  0  0  0  0  0  0  0  0
   -0.6397   -2.1552   -0.6658 H   0  0  0  0  0  0  0  0  0  0  0  0
    0.0585   -1.8148    0.9316 H   0  0  0  0  0  0  0  0  0  0  0  0
   -2.2014    1.8376   -1.1558 H   0  0  0  0  0  0  0  0  0  0  0  0
   -2.4065   -1.8422    1.1290 H   0  0  0  0  0  0  0  0  0  0  0  0
   -4.6430    2.0102   -1.0591 H   0  0  0  0  0  0  0  0  0  0  0  0
   -4.8478   -1.6458    1.1879 H   0  0  0  0  0  0  0  0  0  0  0  0
  1 18  1  0  0  0  0
  2  8  2  0  0  0  0
  3  8  1  0  0  0  0
  3  9  1  0  0  0  0
  3 10  1  0  0  0  0
  4 11  1  0  0  0  0
  4 12  1  0  0  0  0
  4 13  1  0  0  0  0
  5  6  1  0  0  0  0
  5  7  1  0  0  0  0
  5  8  1  0  0  0  0
  5 19  1  0  0  0  0
  6  7  1  0  0  0  0
  6 20  1  0  0  0  0
  6 21  1  0  0  0  0
  7 22  1  0  0  0  0
  7 23  1  0  0  0  0
  9 11  1  0  0  0  0
  9 24  1  0  0  0  0
  9 25  1  0  0  0  0
 10 12  1  0  0  0  0
 10 26  1  0  0  0  0
 10 27  1  0  0  0  0
 11 28  1  0  0  0  0
 11 29  1  0  0  0  0
 12 30  1  0  0  0  0
 12 31  1  0  0  0  0
 13 14  2  0  0  0  0
 13 15  1  0  0  0  0
 14 16  1  0  0  0  0
 14 32  1  0  0  0  0
 15 17  2  0  0  0  0
 15 33  1  0  0  0  0
 16 18  2  0  0  0  0
 16 34  1  0  0  0  0
 17 18  1  0  0  0  0
 17 35  1  0  0  0  0
M  END
> <PUBCHEM_COMPOUND_CID>
757898

> <PUBCHEM_CONFORMER_RMSD>
0.6

> <PUBCHEM_CONFORMER_DIVERSEORDER>
1
20
4
21
13
9
6
18
11
7
17
12
16
15
14
19
3
10
22
8
5
2

> <PUBCHEM_MMFF94_PARTIAL_CHARGES>
27
1 -0.19
10 0.3
11 0.37
12 0.37
13 0.1
14 -0.15
15 -0.15
16 -0.15
17 -0.15
18 0.19
19 0.1
2 -0.57
20 0.1
21 0.1
22 0.1
23 0.1
3 -0.66
32 0.15
33 0.15
34 0.15
35 0.15
4 -0.84
5 -0.1
6 -0.2
7 -0.2
8 0.63
9 0.3

> <PUBCHEM_EFFECTIVE_ROTOR_COUNT>
4.8

> <PUBCHEM_PHARMACOPHORE_FEATURES>
4
1 2 acceptor
1 4 cation
6 13 14 15 16 17 18 rings
6 3 4 9 10 11 12 rings

> <PUBCHEM_HEAVY_ATOM_COUNT>
18

> <PUBCHEM_ATOM_DEF_STEREO_COUNT>
0

> <PUBCHEM_ATOM_UDEF_STEREO_COUNT>
0

> <PUBCHEM_BOND_DEF_STEREO_COUNT>
0

> <PUBCHEM_BOND_UDEF_STEREO_COUNT>
0

> <PUBCHEM_ISOTOPIC_ATOM_COUNT>
0

> <PUBCHEM_COMPONENT_COUNT>
1

> <PUBCHEM_CACTVS_TAUTO_COUNT>
1

> <PUBCHEM_CONFORMER_ID>
000B908A00000001

> <PUBCHEM_MMFF94_ENERGY>
53.7011

> <PUBCHEM_FEATURE_SELFOVERLAP>
20.297

> <PUBCHEM_SHAPE_FINGERPRINT>
11128504 68 15267058177219877200
11287383 113 18261111893742102952
11401426 45 18409729569117332307
12107183 9 17247216822649699128
12236239 1 16630808794616973831
12596602 18 16443066135812318520
12916748 109 18186803560520636384
13081056 2 18410293579816802196
13214271 11 18409164428814986367
13288520 33 10087641511886873929
13533116 47 17346601829229779182
13675066 3 18334861623242887862
14123238 8 18411418422998256969
14341114 176 18408047299046713177
15048467 5 18342175600687822208
15196674 1 18411138000262043134
15375358 24 18409168800722590739
17834072 33 17703784851190380319
17834076 25 16343704339393345012
17844677 252 18339086994873135604
19489759 90 17385441016439051041
200 152 17846494829747780939
20279233 1 18409174294481588931
204376 136 18131069346221187966
20645477 56 18408038532844310751
20645477 70 18130790002038847134
21033648 29 18271228474254173448
21267235 1 18341618075694658158
22854114 59 18413672413329659226
23402539 116 17967528004307355495
23402655 69 17989485212405519486
23557571 272 17749677268237908055
23559900 14 18336265652969539674
239999 70 18410859833249375246
2916195 48 18334851736096433632
300161 21 17561357396594612142
3545911 37 18412265047494859516
42788 4 18408885139602076264
4325135 7 18272647987110502407
4340502 62 17168142338782068274
474229 33 18411981385836781551
5104073 3 18188494545496371587
5374978 207 18335134276852404560
542803 24 16630528423235861803
67856867 119 17459480028977447301

> <PUBCHEM_SHAPE_MULTIPOLES>
347.33
13.3
1.51
0.78
0.38
0.1
-0.01
-2.92
-1.18
0.6
0.19
-0.05
0.04
0.85

> <PUBCHEM_SHAPE_SELFOVERLAP>
731.222

> <PUBCHEM_SHAPE_VOLUME>
196.3

> <PUBCHEM_COORDINATE_TYPE>
2
5
10

$$$$
19626212
  -OEChem-12051909403D

 24 25  0     0  0  0  0  0  0999 V2000
   -1.7053    2.2945    0.0294 F   0  0  0  0  0  0  0  0  0  0  0  0
    0.0331    0.1206    0.0371 N   0  0  0  0  0  0  0  0  0  0  0  0
    3.0579   -0.1474   -1.0322 N   0  0  0  0  0  0  0  0  0  0  0  0
    4.2931    0.3226   -0.7886 N   0  0  0  0  0  0  0  0  0  0  0  0
    0.9488   -0.9648    0.0413 C   0  0  0  0  0  0  0  0  0  0  0  0
    2.3442   -0.4316    0.0948 C   0  0  0  0  0  0  0  0  0  0  0  0
   -1.3662   -0.0561    0.0123 C   0  0  0  0  0  0  0  0  0  0  0  0
    3.1700   -0.1263    1.1492 C   0  0  0  0  0  0  0  0  0  0  0  0
   -2.2117    1.0534    0.0089 C   0  0  0  0  0  0  0  0  0  0  0  0
   -1.9042   -1.3429   -0.0092 C   0  0  0  0  0  0  0  0  0  0  0  0
   -3.5951    0.8759   -0.0164 C   0  0  0  0  0  0  0  0  0  0  0  0
   -3.2876   -1.5202   -0.0343 C   0  0  0  0  0  0  0  0  0  0  0  0
    4.3559    0.3332    0.5457 C   0  0  0  0  0  0  0  0  0  0  0  0
   -4.1329   -0.4109   -0.0379 C   0  0  0  0  0  0  0  0  0  0  0  0
    0.8357   -1.5830   -0.8580 H   0  0  0  0  0  0  0  0  0  0  0  0
    0.7931   -1.6086    0.9160 H   0  0  0  0  0  0  0  0  0  0  0  0
    0.3710    1.0774    0.0478 H   0  0  0  0  0  0  0  0  0  0  0  0
    2.9472   -0.2217    2.2018 H   0  0  0  0  0  0  0  0  0  0  0  0
   -1.2836   -2.2340   -0.0080 H   0  0  0  0  0  0  0  0  0  0  0  0
    2.7661   -0.2484   -1.9965 H   0  0  0  0  0  0  0  0  0  0  0  0
   -4.2531    1.7398   -0.0193 H   0  0  0  0  0  0  0  0  0  0  0  0
   -3.7071   -2.5220   -0.0512 H   0  0  0  0  0  0  0  0  0  0  0  0
    5.2630    0.6754    1.0226 H   0  0  0  0  0  0  0  0  0  0  0  0
   -5.2101   -0.5490   -0.0575 H   0  0  0  0  0  0  0  0  0  0  0  0
  1  9  1  0  0  0  0
  2  5  1  0  0  0  0
  2  7  1  0  0  0  0
  2 17  1  0  0  0  0
  3  4  1  0  0  0  0
  3  6  1  0  0  0  0
  3 20  1  0  0  0  0
  4 13  2  0  0  0  0
  5  6  1  0  0  0  0
  5 15  1  0  0  0  0
  5 16  1  0  0  0  0
  6  8  2  0  0  0  0
  7  9  1  0  0  0  0
  7 10  2  0  0  0  0
  8 13  1  0  0  0  0
  8 18  1  0  0  0  0
  9 11  2  0  0  0  0
 10 12  1  0  0  0  0
 10 19  1  0  0  0  0
 11 14  1  0  0  0  0
 11 21  1  0  0  0  0
 12 14  2  0  0  0  0
 12 22  1  0  0  0  0
 13 23  1  0  0  0  0
 14 24  1  0  0  0  0
M  END
> <PUBCHEM_COMPOUND_CID>
19626212

> <PUBCHEM_CONFORMER_RMSD>
0.6

> <PUBCHEM_CONFORMER_DIVERSEORDER>
2
18
28
10
27
15
21
19
1
12
17
6
20
14
23
4
7
11
5
3
26
9
16
8
24
25
13
22

> <PUBCHEM_MMFF94_PARTIAL_CHARGES>
22
1 -0.19
10 -0.15
11 -0.15
12 -0.15
13 0.14
14 -0.15
17 0.4
18 0.15
19 0.15
2 -0.87
20 0.27
21 0.15
22 0.15
23 0.15
24 0.15
3 0.3
4 -0.71
5 0.55
6 -0.33
7 0.1
8 -0.15
9 0.19

> <PUBCHEM_EFFECTIVE_ROTOR_COUNT>
3

> <PUBCHEM_PHARMACOPHORE_FEATURES>
6
1 2 cation
1 2 donor
1 3 donor
1 4 acceptor
5 3 4 6 8 13 rings
6 7 9 10 11 12 14 rings

> <PUBCHEM_HEAVY_ATOM_COUNT>
14

> <PUBCHEM_ATOM_DEF_STEREO_COUNT>
0

> <PUBCHEM_ATOM_UDEF_STEREO_COUNT>
0

> <PUBCHEM_BOND_DEF_STEREO_COUNT>
0

> <PUBCHEM_BOND_UDEF_STEREO_COUNT>
0

> <PUBCHEM_ISOTOPIC_ATOM_COUNT>
0

> <PUBCHEM_COMPONENT_COUNT>
1

> <PUBCHEM_CACTVS_TAUTO_COUNT>
2

> <PUBCHEM_CONFORMER_ID>
012B78E400000002

> <PUBCHEM_MMFF94_ENERGY>
31.7681

> <PUBCHEM_FEATURE_SELFOVERLAP>
30.446

> <PUBCHEM_SHAPE_FINGERPRINT>
10498660 4 18410854330631339044
11132069 177 18410573976709294125
12173636 292 18268144267239891165
12932764 1 17489294283381485422
13897977 58 18408046225157306549
14144814 61 18335700520412797530
15669948 3 18410847776637891299
18186145 218 16343982520494272966
19050596 39 18186798076047703850
1986462 14 18272936011543015390
200 152 15719105877225572899
20279233 1 17775284967311440638
20510252 161 18272090444531495089
20645477 70 16630252411679293278
2297311 6 18271258178315979452
23048698 100 17022619771601342842
23402539 116 18336255816798015327
23557571 272 18201450154982858021
23559900 14 18270963440870882686
3268164 11 18340757196122284549
474 4 17024319737117024988
573450 72 18188196637505495538

> <PUBCHEM_SHAPE_MULTIPOLES>
265.9
9.06
1.43
0.81
4.85
0.37
0.01
0.3
-0.06
-1.54
0.01
0.75
-0.02
-0.04

> <PUBCHEM_SHAPE_SELFOVERLAP>
568.419

> <PUBCHEM_SHAPE_VOLUME>
147.9

> <PUBCHEM_COORDINATE_TYPE>
2
5
10

$$$$
762331
  -OEChem-12051909403D

 29 30  0     0  0  0  0  0  0999 V2000
   -2.2753   -1.0196   -0.6209 O   0  0  0  0  0  0  0  0  0  0  0  0
   -1.8551    2.3737    0.0472 O   0  0  0  0  0  0  0  0  0  0  0  0
    4.2191   -1.6840    0.4080 O   0  0  0  0  0  0  0  0  0  0  0  0
   -0.2162    0.7412    0.1093 N   0  0  0  0  0  0  0  0  0  0  0  0
    2.5792   -0.0616    0.1084 N   0  0  0  0  0  0  0  0  0  0  0  0
    4.7491    0.1887   -0.7680 N   0  0  0  0  0  0  0  0  0  0  0  0
    0.8546    1.7359    0.1915 C   0  0  0  0  0  0  0  0  0  0  0  0
    0.1902   -0.6684    0.2098 C   0  0  0  0  0  0  0  0  0  0  0  0
    2.1538    1.2364   -0.4314 C   0  0  0  0  0  0  0  0  0  0  0  0
    1.5690   -0.8258    0.8419 C   0  0  0  0  0  0  0  0  0  0  0  0
   -1.5538    1.1784    0.0405 C   0  0  0  0  0  0  0  0  0  0  0  0
    3.8669   -0.5926   -0.0477 C   0  0  0  0  0  0  0  0  0  0  0  0
   -2.5930    0.1537   -0.0259 C   0  0  0  0  0  0  0  0  0  0  0  0
   -3.8864    0.1523    0.4190 C   0  0  0  0  0  0  0  0  0  0  0  0
   -4.4104   -1.1164    0.0744 C   0  0  0  0  0  0  0  0  0  0  0  0
   -3.3916   -1.7919   -0.5560 C   0  0  0  0  0  0  0  0  0  0  0  0
    1.0011    1.9538    1.2565 H   0  0  0  0  0  0  0  0  0  0  0  0
    0.5412    2.6679   -0.2907 H   0  0  0  0  0  0  0  0  0  0  0  0
    0.1945   -1.0822   -0.8051 H   0  0  0  0  0  0  0  0  0  0  0  0
   -0.5187   -1.2212    0.8326 H   0  0  0  0  0  0  0  0  0  0  0  0
    2.0341    1.1060   -1.5135 H   0  0  0  0  0  0  0  0  0  0  0  0
    2.9406    1.9784   -0.2631 H   0  0  0  0  0  0  0  0  0  0  0  0
    1.5681   -0.4472    1.8712 H   0  0  0  0  0  0  0  0  0  0  0  0
    1.8459   -1.8843    0.8816 H   0  0  0  0  0  0  0  0  0  0  0  0
   -4.3974    0.9568    0.9284 H   0  0  0  0  0  0  0  0  0  0  0  0
    5.7031   -0.1233   -0.9183 H   0  0  0  0  0  0  0  0  0  0  0  0
    4.4929    1.0588   -1.2185 H   0  0  0  0  0  0  0  0  0  0  0  0
   -5.4060   -1.4916    0.2622 H   0  0  0  0  0  0  0  0  0  0  0  0
   -3.3047   -2.7760   -0.9926 H   0  0  0  0  0  0  0  0  0  0  0  0
  1 13  1  0  0  0  0
  1 16  1  0  0  0  0
  2 11  2  0  0  0  0
  3 12  2  0  0  0  0
  4  7  1  0  0  0  0
  4  8  1  0  0  0  0
  4 11  1  0  0  0  0
  5  9  1  0  0  0  0
  5 10  1  0  0  0  0
  5 12  1  0  0  0  0
  6 12  1  0  0  0  0
  6 26  1  0  0  0  0
  6 27  1  0  0  0  0
  7  9  1  0  0  0  0
  7 17  1  0  0  0  0
  7 18  1  0  0  0  0
  8 10  1  0  0  0  0
  8 19  1  0  0  0  0
  8 20  1  0  0  0  0
  9 21  1  0  0  0  0
  9 22  1  0  0  0  0
 10 23  1  0  0  0  0
 10 24  1  0  0  0  0
 11 13  1  0  0  0  0
 13 14  2  0  0  0  0
 14 15  1  0  0  0  0
 14 25  1  0  0  0  0
 15 16  2  0  0  0  0
 15 28  1  0  0  0  0
 16 29  1  0  0  0  0
M  END
> <PUBCHEM_COMPOUND_CID>
762331

> <PUBCHEM_CONFORMER_RMSD>
0.6

> <PUBCHEM_CONFORMER_DIVERSEORDER>
1
10
18
23
12
4
14
5
22
3
6
17
8
20
9
16
2
21
11
13
7
15
19

> <PUBCHEM_MMFF94_PARTIAL_CHARGES>
21
1 -0.28
10 0.3
11 0.71
12 0.69
13 0.05
14 -0.15
15 -0.15
16 -0.01
2 -0.57
25 0.15
26 0.37
27 0.37
28 0.15
29 0.15
3 -0.57
4 -0.66
5 -0.66
6 -0.8
7 0.3
8 0.3
9 0.3

> <PUBCHEM_EFFECTIVE_ROTOR_COUNT>
4.2

> <PUBCHEM_PHARMACOPHORE_FEATURES>
6
1 1 acceptor
1 2 acceptor
1 3 acceptor
1 6 donor
5 1 13 14 15 16 rings
6 4 5 7 8 9 10 rings

> <PUBCHEM_HEAVY_ATOM_COUNT>
16

> <PUBCHEM_ATOM_DEF_STEREO_COUNT>
0

> <PUBCHEM_ATOM_UDEF_STEREO_COUNT>
0

> <PUBCHEM_BOND_DEF_STEREO_COUNT>
0

> <PUBCHEM_BOND_UDEF_STEREO_COUNT>
0

> <PUBCHEM_ISOTOPIC_ATOM_COUNT>
0

> <PUBCHEM_COMPONENT_COUNT>
1

> <PUBCHEM_CACTVS_TAUTO_COUNT>
2

> <PUBCHEM_CONFORMER_ID>
000BA1DB00000001

> <PUBCHEM_MMFF94_ENERGY>
30.1954

> <PUBCHEM_FEATURE_SELFOVERLAP>
30.447

> <PUBCHEM_SHAPE_FINGERPRINT>
10062212 137 18189047599581489290
11046707 91 18343300379491857115
11543360 7 15574718035861856523
11769659 78 18411696599418998252
11806522 49 18335420192524748548
12032990 46 18411419518214826552
12553582 1 18410564107133203187
13221675 6 18410571790634380387
13288520 33 18342179959641511438
13675066 3 13542467565928826794
14115302 16 17749399207987316687
14576447 43 18336263530902111718
14965852 173 18412543189197439217
15196674 1 18410292514480270289
15375462 189 18334856099946542147
15536298 74 18270960266589409496
17804303 29 18201720660808182337
18186145 218 17458616861194669523
18915474 69 18335702771181596766
19422 9 18341054120196468213
200 152 18333730230193952587
20281475 54 18411981368640782817
20291156 8 18410007741010887297
20645477 70 18336537339393815167
20871999 31 18187921755583256381
21267235 1 18339088176463856675
21634736 98 18265332983289709822
221490 88 18118128197536152163
22485316 2 18412823590352970656
22646028 28 18412262860955774111
23402539 116 18409443683109053494
23402655 69 18187644669762454764
23463225 33 18340487863165708389
23557571 272 17988653943393043684
23559900 14 18341886424560586248
2871803 45 18260258664171186051
465052 167 18270406108824660735
5104073 3 18413389847378502297
57096353 35 18186810179545092894
7364860 26 18199184177783159712
83771 10 18412824685453567169
8809292 202 18261114118614569587

> <PUBCHEM_SHAPE_MULTIPOLES>
296.72
8.83
1.91
0.74
2.75
0.5
0.01
-3.91
-0.74
-0.43
-0.01
0.1
-0.09
-0.61

> <PUBCHEM_SHAPE_SELFOVERLAP>
623.096

> <PUBCHEM_SHAPE_VOLUME>
166.4

> <PUBCHEM_COORDINATE_TYPE>
2
5
10

$$$$
851859
  -OEChem-12051909403D

 30 31  0     0  0  0  0  0  0999 V2000
    5.5740    0.0678    0.1345 F   0  0  0  0  0  0  0  0  0  0  0  0
   -4.9015    1.0477   -0.3754 O   0  0  0  0  0  0  0  0  0  0  0  0
    0.0178   -0.0416   -0.0879 N   0  0  0  0  0  0  0  0  0  0  0  0
   -2.8737   -0.0491   -0.0663 N   0  0  0  0  0  0  0  0  0  0  0  0
   -4.8919   -0.9029    0.7925 N   0  0  0  0  0  0  0  0  0  0  0  0
   -0.7483    1.2059   -0.1620 C   0  0  0  0  0  0  0  0  0  0  0  0
   -0.7150   -1.3081   -0.1473 C   0  0  0  0  0  0  0  0  0  0  0  0
   -2.1163    0.9643   -0.7961 C   0  0  0  0  0  0  0  0  0  0  0  0
   -2.1008   -1.1666    0.4838 C   0  0  0  0  0  0  0  0  0  0  0  0
    1.4095   -0.0140   -0.0332 C   0  0  0  0  0  0  0  0  0  0  0  0
   -4.2597    0.0975    0.0806 C   0  0  0  0  0  0  0  0  0  0  0  0
    2.1021    1.0670    0.5620 C   0  0  0  0  0  0  0  0  0  0  0  0
    2.1894   -1.0659   -0.5693 C   0  0  0  0  0  0  0  0  0  0  0  0
    3.4955    1.0946    0.6178 C   0  0  0  0  0  0  0  0  0  0  0  0
    3.5829   -1.0384   -0.5135 C   0  0  0  0  0  0  0  0  0  0  0  0
    4.2359    0.0419    0.0800 C   0  0  0  0  0  0  0  0  0  0  0  0
   -0.2197    1.9513   -0.7686 H   0  0  0  0  0  0  0  0  0  0  0  0
   -0.8744    1.6132    0.8486 H   0  0  0  0  0  0  0  0  0  0  0  0
   -0.1824   -2.1002    0.3930 H   0  0  0  0  0  0  0  0  0  0  0  0
   -0.8102   -1.6197   -1.1948 H   0  0  0  0  0  0  0  0  0  0  0  0
   -2.6790    1.9027   -0.8394 H   0  0  0  0  0  0  0  0  0  0  0  0
   -2.0059    0.6014   -1.8253 H   0  0  0  0  0  0  0  0  0  0  0  0
   -2.6517   -2.1015    0.3398 H   0  0  0  0  0  0  0  0  0  0  0  0
   -2.0125   -0.9894    1.5624 H   0  0  0  0  0  0  0  0  0  0  0  0
    1.5579    1.8991    1.0029 H   0  0  0  0  0  0  0  0  0  0  0  0
    1.7167   -1.9175   -1.0533 H   0  0  0  0  0  0  0  0  0  0  0  0
    4.0046    1.9338    1.0824 H   0  0  0  0  0  0  0  0  0  0  0  0
    4.1602   -1.8561   -0.9347 H   0  0  0  0  0  0  0  0  0  0  0  0
   -5.8963   -0.8721    0.9348 H   0  0  0  0  0  0  0  0  0  0  0  0
   -4.4055   -1.6656    1.2477 H   0  0  0  0  0  0  0  0  0  0  0  0
  1 16  1  0  0  0  0
  2 11  2  0  0  0  0
  3  6  1  0  0  0  0
  3  7  1  0  0  0  0
  3 10  1  0  0  0  0
  4  8  1  0  0  0  0
  4  9  1  0  0  0  0
  4 11  1  0  0  0  0
  5 11  1  0  0  0  0
  5 29  1  0  0  0  0
  5 30  1  0  0  0  0
  6  8  1  0  0  0  0
  6 17  1  0  0  0  0
  6 18  1  0  0  0  0
  7  9  1  0  0  0  0
  7 19  1  0  0  0  0
  7 20  1  0  0  0  0
  8 21  1  0  0  0  0
  8 22  1  0  0  0  0
  9 23  1  0  0  0  0
  9 24  1  0  0  0  0
 10 12  2  0  0  0  0
 10 13  1  0  0  0  0
 12 14  1  0  0  0  0
 12 25  1  0  0  0  0
 13 15  2  0  0  0  0
 13 26  1  0  0  0  0
 14 16  2  0  0  0  0
 14 27  1  0  0  0  0
 15 16  1  0  0  0  0
 15 28  1  0  0  0  0
M  END
> <PUBCHEM_COMPOUND_CID>
851859

> <PUBCHEM_CONFORMER_RMSD>
0.6

> <PUBCHEM_CONFORMER_DIVERSEORDER>
1
3
2
4
6
5

> <PUBCHEM_MMFF94_PARTIAL_CHARGES>
22
1 -0.19
10 0.1
11 0.69
12 -0.15
13 -0.15
14 -0.15
15 -0.15
16 0.19
2 -0.57
25 0.15
26 0.15
27 0.15
28 0.15
29 0.37
3 -0.84
30 0.37
4 -0.66
5 -0.8
6 0.37
7 0.37
8 0.3
9 0.3

> <PUBCHEM_EFFECTIVE_ROTOR_COUNT>
3.2

> <PUBCHEM_PHARMACOPHORE_FEATURES>
5
1 2 acceptor
1 3 cation
1 5 donor
6 10 12 13 14 15 16 rings
6 3 4 6 7 8 9 rings

> <PUBCHEM_HEAVY_ATOM_COUNT>
16

> <PUBCHEM_ATOM_DEF_STEREO_COUNT>
0

> <PUBCHEM_ATOM_UDEF_STEREO_COUNT>
0

> <PUBCHEM_BOND_DEF_STEREO_COUNT>
0

> <PUBCHEM_BOND_UDEF_STEREO_COUNT>
0

> <PUBCHEM_ISOTOPIC_ATOM_COUNT>
0

> <PUBCHEM_COMPONENT_COUNT>
1

> <PUBCHEM_CACTVS_TAUTO_COUNT>
2

> <PUBCHEM_CONFORMER_ID>
000CFF9300000001

> <PUBCHEM_MMFF94_ENERGY>
48.4267

> <PUBCHEM_FEATURE_SELFOVERLAP>
25.371

> <PUBCHEM_SHAPE_FINGERPRINT>
10608611 8 18412538821410981824
11132069 177 18334013900141577151
11401426 45 18409165502730773111
11471102 20 18131350804434247292
12032990 46 18408046212636148117
12119455 92 17775002392749022039
12236239 1 16153426147320131390
13214271 11 18408602561604734831
13675066 3 18408605885529542051
14123238 8 18334858324533755806
14386348 63 18410859862696616978
15196674 1 18339359768161396684
15219456 202 18413670209921694198
15375358 24 18412263938850186103
17834072 33 17560794472410884373
18522853 276 18130787845812049672
200 152 17418089914529524231
20279233 1 18411987961658461086
20510252 161 18340486660369604993
20528008 55 18343018904161705571
20645477 56 18410288129334543916
20645477 70 18059576832830863486
21267235 1 18341341028454618326
22485316 2 18412261731442743799
22854114 59 18343864419992392722
23402539 116 18411410718069469431
23402655 69 18060415789855839293
23557571 272 18114179692536083828
23559900 14 18335985290136079686
26918003 58 18342455945613023186
3545911 37 18272653467098426906
42 15 17967248680824410586
42788 4 18410293613991904548
474 4 15553297380990375858
5104073 3 18339079276679378738
542803 24 16370728127701587462
69090 78 18272083911606831759
8272917 22 17274833406369934198

> <PUBCHEM_SHAPE_MULTIPOLES>
301.19
10.42
1.37
0.78
1.73
0.04
0
-0.36
0.88
0.05
-0.01
0.11
-0.01
0.93

> <PUBCHEM_SHAPE_SELFOVERLAP>
629.613

> <PUBCHEM_SHAPE_VOLUME>
170.3

> <PUBCHEM_COORDINATE_TYPE>
2
5
10

$$$$
4616833
  -OEChem-12051909403D

 26 28  0     0  0  0  0  0  0999 V2000
    2.5917    1.8834   -0.1813 O   0  0  0  0  0  0  0  0  0  0  0  0
    4.0070   -0.0509    0.0696 O   0  0  0  0  0  0  0  0  0  0  0  0
   -2.0026   -1.8911   -0.4084 O   0  0  0  0  0  0  0  0  0  0  0  0
   -2.2702    0.2670    0.3963 N   0  0  0  0  0  0  0  0  0  0  0  0
   -3.7146    0.2496    0.4456 C   0  0  0  0  0  0  0  0  0  0  0  0
   -4.5151    0.5626   -0.7706 C   0  0  0  0  0  0  0  0  0  0  0  0
   -4.4857    1.5222    0.3827 C   0  0  0  0  0  0  0  0  0  0  0  0
   -1.4978   -0.8183   -0.0330 C   0  0  0  0  0  0  0  0  0  0  0  0
   -0.0529   -0.6537   -0.0013 C   0  0  0  0  0  0  0  0  0  0  0  0
    0.5018    0.6231   -0.1168 C   0  0  0  0  0  0  0  0  0  0  0  0
    1.8771    0.7293   -0.0822 C   0  0  0  0  0  0  0  0  0  0  0  0
    0.7730   -1.7823    0.1450 C   0  0  0  0  0  0  0  0  0  0  0  0
    2.6853   -0.3752    0.0609 C   0  0  0  0  0  0  0  0  0  0  0  0
    2.1630   -1.6469    0.1772 C   0  0  0  0  0  0  0  0  0  0  0  0
    3.9402    1.3814   -0.0837 C   0  0  0  0  0  0  0  0  0  0  0  0
   -4.0966   -0.5176    1.1108 H   0  0  0  0  0  0  0  0  0  0  0  0
   -5.4255   -0.0001   -0.9360 H   0  0  0  0  0  0  0  0  0  0  0  0
   -3.9946    0.8492   -1.6762 H   0  0  0  0  0  0  0  0  0  0  0  0
   -3.9466    2.4520    0.2487 H   0  0  0  0  0  0  0  0  0  0  0  0
   -5.3772    1.6054    0.9920 H   0  0  0  0  0  0  0  0  0  0  0  0
   -1.8242    1.1027    0.7628 H   0  0  0  0  0  0  0  0  0  0  0  0
   -0.0929    1.5181   -0.2600 H   0  0  0  0  0  0  0  0  0  0  0  0
    0.3442   -2.7771    0.2398 H   0  0  0  0  0  0  0  0  0  0  0  0
    2.8033   -2.5142    0.2907 H   0  0  0  0  0  0  0  0  0  0  0  0
    4.4274    1.8498    0.7793 H   0  0  0  0  0  0  0  0  0  0  0  0
    4.4860    1.6631   -0.9915 H   0  0  0  0  0  0  0  0  0  0  0  0
  1 11  1  0  0  0  0
  1 15  1  0  0  0  0
  2 13  1  0  0  0  0
  2 15  1  0  0  0  0
  3  8  2  0  0  0  0
  4  5  1  0  0  0  0
  4  8  1  0  0  0  0
  4 21  1  0  0  0  0
  5  6  1  0  0  0  0
  5  7  1  0  0  0  0
  5 16  1  0  0  0  0
  6  7  1  0  0  0  0
  6 17  1  0  0  0  0
  6 18  1  0  0  0  0
  7 19  1  0  0  0  0
  7 20  1  0  0  0  0
  8  9  1  0  0  0  0
  9 10  2  0  0  0  0
  9 12  1  0  0  0  0
 10 11  1  0  0  0  0
 10 22  1  0  0  0  0
 11 13  2  0  0  0  0
 12 14  2  0  0  0  0
 12 23  1  0  0  0  0
 13 14  1  0  0  0  0
 14 24  1  0  0  0  0
 15 25  1  0  0  0  0
 15 26  1  0  0  0  0
M  END
> <PUBCHEM_COMPOUND_CID>
4616833

> <PUBCHEM_CONFORMER_RMSD>
0.6

> <PUBCHEM_CONFORMER_DIVERSEORDER>
1
3
6
4
2
5

> <PUBCHEM_MMFF94_PARTIAL_CHARGES>
24
1 -0.36
10 -0.15
11 0.08
12 -0.15
13 0.08
14 -0.15
15 0.56
16 0.1
17 0.1
18 0.1
19 0.1
2 -0.36
20 0.1
21 0.37
22 0.15
23 0.15
24 0.15
3 -0.57
4 -0.58
5 0.05
6 -0.2
7 -0.2
8 0.54
9 0.09

> <PUBCHEM_EFFECTIVE_ROTOR_COUNT>
4.2

> <PUBCHEM_PHARMACOPHORE_FEATURES>
6
1 1 acceptor
1 2 acceptor
1 3 acceptor
1 4 donor
5 1 2 11 13 15 rings
6 9 10 11 12 13 14 rings

> <PUBCHEM_HEAVY_ATOM_COUNT>
15

> <PUBCHEM_ATOM_DEF_STEREO_COUNT>
0

> <PUBCHEM_ATOM_UDEF_STEREO_COUNT>
0

> <PUBCHEM_BOND_DEF_STEREO_COUNT>
0

> <PUBCHEM_BOND_UDEF_STEREO_COUNT>
0

> <PUBCHEM_ISOTOPIC_ATOM_COUNT>
0

> <PUBCHEM_COMPONENT_COUNT>
1

> <PUBCHEM_CACTVS_TAUTO_COUNT>
2

> <PUBCHEM_CONFORMER_ID>
0046728100000001

> <PUBCHEM_MMFF94_ENERGY>
38.6557

> <PUBCHEM_FEATURE_SELFOVERLAP>
30.601

> <PUBCHEM_SHAPE_FINGERPRINT>
10465860 228 18409735036436503434
10608611 8 18407478864604697081
10980938 120 18408885101015948867
11471102 20 18409446955884559030
11543360 7 15697994180151425833
122479 349 18334581256531179083
12346645 6 18341050731377880366
13380535 76 18412263934761180927
13675066 3 17894917329892201209
13705890 14 11600003241100086474
13922767 16 18410572881582369456
14123255 52 18410855477503255313
14252887 29 11819271135925245776
14415576 193 18410296908231859748
14897335 6 18412543219346515295
15196674 1 18410293631166518498
15442244 35 18123753049767875987
15775835 57 18411703205083857349
18186145 218 18340773628835885703
20645477 70 18341051813483084567
22854114 111 18334577927604307969
231179 274 18186516583711743253
23402539 116 17846492608870225133
23402655 69 18272366439198520589
23559900 14 18201720609495837318
25 1 18408322194154690218
293599 30 18336271240653381148
335352 9 18410293584623725966
3545911 37 18410859871365607899
4047638 21 18411985740965034363
474 4 18187366570635293829
4990 188 17917720088655739638
5104073 3 18407759256875123227
633830 44 18336265738599659294
6430166 295 18410291410679131880
69090 78 18412259532625132135
7364860 26 18269558252036278486
7832392 63 18412261765617605988
8272917 22 18270123392354221711

> <PUBCHEM_SHAPE_MULTIPOLES>
286.1
8.6
1.87
0.68
5.9
0.24
-0.02
-4.19
-0.11
-0.68
-0.03
0.33
-0.02
-0.32

> <PUBCHEM_SHAPE_SELFOVERLAP>
621.081

> <PUBCHEM_SHAPE_VOLUME>
157

> <PUBCHEM_COORDINATE_TYPE>
2
5
10

$$$$
19414474
  -OEChem-12051909403D

 25 27  0     0  0  0  0  0  0999 V2000
   -1.2334   -1.6037    0.2654 O   0  0  0  0  0  0  0  0  0  0  0  0
   -2.3613    0.4071    0.2584 N   0  0  0  0  0  0  0  0  0  0  0  0
    2.2042    0.8796   -0.0592 N   0  0  0  0  0  0  0  0  0  0  0  0
    1.5543    2.0727   -0.0481 N   0  0  0  0  0  0  0  0  0  0  0  0
    1.7435   -1.4817    0.0373 N   0  0  0  0  0  0  0  0  0  0  0  0
   -3.6794   -0.1711    0.3912 C   0  0  0  0  0  0  0  0  0  0  0  0
   -4.4381   -0.6592   -0.8078 C   0  0  0  0  0  0  0  0  0  0  0  0
   -4.9002    0.5664   -0.0754 C   0  0  0  0  0  0  0  0  0  0  0  0
   -1.1811   -0.3559    0.2012 C   0  0  0  0  0  0  0  0  0  0  0  0
    0.0520    0.3649    0.0991 C   0  0  0  0  0  0  0  0  0  0  0  0
    1.3102   -0.1885    0.0306 C   0  0  0  0  0  0  0  0  0  0  0  0
    0.2650    1.7490    0.0464 C   0  0  0  0  0  0  0  0  0  0  0  0
    3.5759    0.6586   -0.1470 C   0  0  0  0  0  0  0  0  0  0  0  0
    4.0600   -0.5875   -0.1461 C   0  0  0  0  0  0  0  0  0  0  0  0
    3.0283   -1.6507   -0.0458 C   0  0  0  0  0  0  0  0  0  0  0  0
   -3.7851   -0.7414    1.3088 H   0  0  0  0  0  0  0  0  0  0  0  0
   -5.0241   -1.5635   -0.6999 H   0  0  0  0  0  0  0  0  0  0  0  0
   -3.9978   -0.5234   -1.7880 H   0  0  0  0  0  0  0  0  0  0  0  0
   -4.7707    1.5234   -0.5658 H   0  0  0  0  0  0  0  0  0  0  0  0
   -5.7983    0.4871    0.5246 H   0  0  0  0  0  0  0  0  0  0  0  0
   -2.3144    1.4211    0.2187 H   0  0  0  0  0  0  0  0  0  0  0  0
   -0.4557    2.5537    0.0722 H   0  0  0  0  0  0  0  0  0  0  0  0
    4.2155    1.5303   -0.2147 H   0  0  0  0  0  0  0  0  0  0  0  0
    5.1085   -0.8379   -0.2111 H   0  0  0  0  0  0  0  0  0  0  0  0
    3.4242   -2.6796   -0.0440 H   0  0  0  0  0  0  0  0  0  0  0  0
  1  9  2  0  0  0  0
  2  6  1  0  0  0  0
  2  9  1  0  0  0  0
  2 21  1  0  0  0  0
  3  4  1  0  0  0  0
  3 11  1  0  0  0  0
  3 13  1  0  0  0  0
  4 12  2  0  0  0  0
  5 11  1  0  0  0  0
  5 15  2  0  0  0  0
  6  7  1  0  0  0  0
  6  8  1  0  0  0  0
  6 16  1  0  0  0  0
  7  8  1  0  0  0  0
  7 17  1  0  0  0  0
  7 18  1  0  0  0  0
  8 19  1  0  0  0  0
  8 20  1  0  0  0  0
  9 10  1  0  0  0  0
 10 11  2  0  0  0  0
 10 12  1  0  0  0  0
 12 22  1  0  0  0  0
 13 14  2  0  0  0  0
 13 23  1  0  0  0  0
 14 15  1  0  0  0  0
 14 24  1  0  0  0  0
 15 25  1  0  0  0  0
M  END
> <PUBCHEM_COMPOUND_CID>
19414474

> <PUBCHEM_CONFORMER_RMSD>
0.6

> <PUBCHEM_CONFORMER_DIVERSEORDER>
1
2
6
5
4
3

> <PUBCHEM_MMFF94_PARTIAL_CHARGES>
25
1 -0.57
10 -0.09
11 -0.03
12 0.14
13 -0.18
14 -0.14
15 0.38
16 0.1
17 0.1
18 0.1
19 0.1
2 -0.58
20 0.1
21 0.37
22 0.15
23 0.15
24 0.15
25 0.06
3 0.6
4 -0.71
5 -0.58
6 0.05
7 -0.2
8 -0.2
9 0.72

> <PUBCHEM_EFFECTIVE_ROTOR_COUNT>
3.6

> <PUBCHEM_PHARMACOPHORE_FEATURES>
6
1 1 acceptor
1 2 donor
1 4 acceptor
1 5 acceptor
5 3 4 10 11 12 rings
6 3 5 11 13 14 15 rings

> <PUBCHEM_HEAVY_ATOM_COUNT>
15

> <PUBCHEM_ATOM_DEF_STEREO_COUNT>
0

> <PUBCHEM_ATOM_UDEF_STEREO_COUNT>
0

> <PUBCHEM_BOND_DEF_STEREO_COUNT>
0

> <PUBCHEM_BOND_UDEF_STEREO_COUNT>
0

> <PUBCHEM_ISOTOPIC_ATOM_COUNT>
0

> <PUBCHEM_COMPONENT_COUNT>
1

> <PUBCHEM_CACTVS_TAUTO_COUNT>
2

> <PUBCHEM_CONFORMER_ID>
01283DCA00000001

> <PUBCHEM_MMFF94_ENERGY>
29.6479

> <PUBCHEM_FEATURE_SELFOVERLAP>
30.576

> <PUBCHEM_SHAPE_FINGERPRINT>
11401426 45 18342171172307189809
11471102 20 18409166623395509860
11806522 49 18413107268537075896
12236239 1 17918275351139901161
13167823 11 18201434813908354903
13380535 76 18410294739279065683
13571099 22 18411984662970421667
13690532 89 18412544297356841907
13862211 1 18410571752343983378
14115302 16 17967828153606794462
14251717 144 18411699880795280374
14252887 29 18060146409892162510
14576447 43 18200584916963060591
14911166 2 18408327687428365974
14993402 34 18343587338751557639
15196674 1 18410575102127927643
15375358 24 18333733545813883234
15442244 35 18340772520470761201
15477762 27 18412262843617538975
15848700 24 18411979144148540348
16945 1 18410022043668889864
17834072 33 18201718495907126045
18186145 218 17968088733947093155
200 152 18131348618406676409
20201158 50 18407763633584064018
20645477 70 18410575063405033599
20871998 22 18199755730582097950
21267235 1 18339653260646765442
21501925 9 18411978036083771408
21637258 2 16056328211505627638
221357 26 18336252471831096285
221490 88 18192436483486896827
23402539 116 18201714038105775045
23402655 69 18412823569247516429
23559900 14 18342735264917357296
2748010 2 18049170165700584104
2871803 45 18334578993247002670
34934 24 18411414051206891810
4072396 5 18335124398443383218
5104073 3 18411138073677466731
522135 26 18335421257381134935
57005193 9 18411414020836334602
69090 78 18412822503958639199
7364860 26 18270961361927551752

> <PUBCHEM_SHAPE_MULTIPOLES>
282.9
8.73
1.69
0.66
7.3
0.23
0.04
-1.22
1.04
-1.09
0
0.26
-0.04
-0.14

> <PUBCHEM_SHAPE_SELFOVERLAP>
610.539

> <PUBCHEM_SHAPE_VOLUME>
156.5

> <PUBCHEM_COORDINATE_TYPE>
2
5
10

$$$$
2773289
  -OEChem-12051909403D

 17 18  0     0  0  0  0  0  0999 V2000
   -3.9349    0.9437    0.0001 Br  0  0  0  0  0  0  0  0  0  0  0  0
    3.6530    0.5199   -0.0002 O   0  0  0  0  0  0  0  0  0  0  0  0
    1.4001    1.1923    0.0000 N   0  0  0  0  0  0  0  0  0  0  0  0
    0.3719   -0.8365    0.0002 C   0  0  0  0  0  0  0  0  0  0  0  0
    1.8387   -1.1283    0.0001 C   0  0  0  0  0  0  0  0  0  0  0  0
    0.1714    0.5415    0.0001 C   0  0  0  0  0  0  0  0  0  0  0  0
    2.4565    0.2746    0.0001 C   0  0  0  0  0  0  0  0  0  0  0  0
   -0.7031   -1.7039    0.0000 C   0  0  0  0  0  0  0  0  0  0  0  0
   -1.0860    1.1100    0.0000 C   0  0  0  0  0  0  0  0  0  0  0  0
   -1.9890   -1.1540   -0.0002 C   0  0  0  0  0  0  0  0  0  0  0  0
   -2.1786    0.2408   -0.0002 C   0  0  0  0  0  0  0  0  0  0  0  0
    2.1411   -1.6610    0.9053 H   0  0  0  0  0  0  0  0  0  0  0  0
    2.1409   -1.6609   -0.9052 H   0  0  0  0  0  0  0  0  0  0  0  0
    1.5030    2.2002   -0.0002 H   0  0  0  0  0  0  0  0  0  0  0  0
   -0.5607   -2.7788    0.0000 H   0  0  0  0  0  0  0  0  0  0  0  0
   -1.2120    2.1874    0.0000 H   0  0  0  0  0  0  0  0  0  0  0  0
   -2.8446   -1.8258   -0.0004 H   0  0  0  0  0  0  0  0  0  0  0  0
  1 11  1  0  0  0  0
  2  7  2  0  0  0  0
  3  6  1  0  0  0  0
  3  7  1  0  0  0  0
  3 14  1  0  0  0  0
  4  5  1  0  0  0  0
  4  6  2  0  0  0  0
  4  8  1  0  0  0  0
  5  7  1  0  0  0  0
  5 12  1  0  0  0  0
  5 13  1  0  0  0  0
  6  9  1  0  0  0  0
  8 10  2  0  0  0  0
  8 15  1  0  0  0  0
  9 11  2  0  0  0  0
  9 16  1  0  0  0  0
 10 11  1  0  0  0  0
 10 17  1  0  0  0  0
M  END
> <PUBCHEM_COMPOUND_CID>
2773289

> <PUBCHEM_CONFORMER_RMSD>
0.4

> <PUBCHEM_CONFORMER_DIVERSEORDER>
1

> <PUBCHEM_MMFF94_PARTIAL_CHARGES>
15
1 -0.11
10 -0.15
11 0.11
14 0.37
15 0.15
16 0.15
17 0.15
2 -0.57
3 -0.55
4 -0.14
5 0.2
6 0.12
7 0.57
8 -0.15
9 -0.15

> <PUBCHEM_EFFECTIVE_ROTOR_COUNT>
0.4

> <PUBCHEM_PHARMACOPHORE_FEATURES>
5
1 1 hydrophobe
1 2 acceptor
1 3 donor
5 3 4 5 6 7 rings
6 4 6 8 9 10 11 rings

> <PUBCHEM_HEAVY_ATOM_COUNT>
11

> <PUBCHEM_ATOM_DEF_STEREO_COUNT>
0

> <PUBCHEM_ATOM_UDEF_STEREO_COUNT>
0

> <PUBCHEM_BOND_DEF_STEREO_COUNT>
0

> <PUBCHEM_BOND_UDEF_STEREO_COUNT>
0

> <PUBCHEM_ISOTOPIC_ATOM_COUNT>
0

> <PUBCHEM_COMPONENT_COUNT>
1

> <PUBCHEM_CACTVS_TAUTO_COUNT>
3

> <PUBCHEM_CONFORMER_ID>
002A512900000001

> <PUBCHEM_MMFF94_ENERGY>
27.4293

> <PUBCHEM_FEATURE_SELFOVERLAP>
25.462

> <PUBCHEM_SHAPE_FINGERPRINT>
10219947 1 18261678073706142037
11471102 20 18338511933433446229
13380535 76 18411699872416387799
14325111 11 18410575063531205249
14897335 6 18412258424301952143
15775835 57 18408042900905223953
16945 1 18410573993746679974
193761 8 17834114526013121797
20645477 70 18196084453025728559
20871998 184 18129386075660643551
21040471 1 18410574006642228807
23235685 24 18411694370536693441
23402539 116 18201709639748125141
23402655 69 18269823239208364789
23552423 10 18188771793887794998
23559900 14 18272092721549983396
2748010 2 18123468546892079453
369184 2 18408319999257596946
528886 8 18411414007924747187
53812653 166 18342171176375466424
6333449 129 18341328980760097199
7364860 26 18269835307581377194

> <PUBCHEM_SHAPE_MULTIPOLES>
221.47
5.3
1.56
0.61
1.02
0.42
0
-1.86
0
0.19
0
0.09
0.01
0

> <PUBCHEM_SHAPE_SELFOVERLAP>
467.75

> <PUBCHEM_SHAPE_VOLUME>
128.8

> <PUBCHEM_COORDINATE_TYPE>
2
5
10

$$$$
68738532
  -OEChem-12051909403D

 19 19  0     0  0  0  0  0  0999 V2000
   -3.9003   -0.1099   -0.5757 Br  0  0  0  0  0  0  0  0  0  0  0  0
    2.6977    0.1232   -1.4040 O   0  0  0  0  0  0  0  0  0  0  0  0
    0.6743    2.0989    0.3497 O   0  0  0  0  0  0  0  0  0  0  0  0
    0.6181   -0.2335    0.5101 N   0  0  0  0  0  0  0  0  0  0  0  0
    2.0313   -0.3378    0.8546 C   0  0  0  0  0  0  0  0  0  0  0  0
    2.8620   -0.7945   -0.3307 C   0  0  0  0  0  0  0  0  0  0  0  0
    0.0652    1.0322    0.2843 C   0  0  0  0  0  0  0  0  0  0  0  0
   -0.1374   -1.3886    0.4159 C   0  0  0  0  0  0  0  0  0  0  0  0
   -1.3890    1.0544   -0.0638 C   0  0  0  0  0  0  0  0  0  0  0  0
   -1.4378   -1.3553    0.1037 C   0  0  0  0  0  0  0  0  0  0  0  0
   -2.0841   -0.0892   -0.1442 C   0  0  0  0  0  0  0  0  0  0  0  0
    2.1414   -1.0349    1.6937 H   0  0  0  0  0  0  0  0  0  0  0  0
    2.3928    0.6394    1.1940 H   0  0  0  0  0  0  0  0  0  0  0  0
    2.5562   -1.7869   -0.6767 H   0  0  0  0  0  0  0  0  0  0  0  0
    3.9219   -0.8295   -0.0599 H   0  0  0  0  0  0  0  0  0  0  0  0
    0.3718   -2.3262    0.6089 H   0  0  0  0  0  0  0  0  0  0  0  0
   -1.8392    2.0249   -0.2434 H   0  0  0  0  0  0  0  0  0  0  0  0
   -2.0066   -2.2763    0.0374 H   0  0  0  0  0  0  0  0  0  0  0  0
    3.2472   -0.1970   -2.1395 H   0  0  0  0  0  0  0  0  0  0  0  0
  1 11  1  0  0  0  0
  2  6  1  0  0  0  0
  2 19  1  0  0  0  0
  3  7  2  0  0  0  0
  4  5  1  0  0  0  0
  4  7  1  0  0  0  0
  4  8  1  0  0  0  0
  5  6  1  0  0  0  0
  5 12  1  0  0  0  0
  5 13  1  0  0  0  0
  6 14  1  0  0  0  0
  6 15  1  0  0  0  0
  7  9  1  0  0  0  0
  8 10  2  0  0  0  0
  8 16  1  0  0  0  0
  9 11  2  0  0  0  0
  9 17  1  0  0  0  0
 10 11  1  0  0  0  0
 10 18  1  0  0  0  0
M  END
> <PUBCHEM_COMPOUND_CID>
68738532

> <PUBCHEM_CONFORMER_RMSD>
0.4

> <PUBCHEM_CONFORMER_DIVERSEORDER>
1
10
7
6
3
5
9
4
2
8

> <PUBCHEM_MMFF94_PARTIAL_CHARGES>
15
1 -0.11
10 -0.15
11 0.11
16 0.15
17 0.15
18 0.15
19 0.4
2 -0.68
3 -0.57
4 -0.47
5 0.3
6 0.28
7 0.62
8 -0.04
9 -0.14

> <PUBCHEM_EFFECTIVE_ROTOR_COUNT>
2

> <PUBCHEM_PHARMACOPHORE_FEATURES>
5
1 1 hydrophobe
1 2 acceptor
1 2 donor
1 3 acceptor
6 4 7 8 9 10 11 rings

> <PUBCHEM_HEAVY_ATOM_COUNT>
11

> <PUBCHEM_ATOM_DEF_STEREO_COUNT>
0

> <PUBCHEM_ATOM_UDEF_STEREO_COUNT>
0

> <PUBCHEM_BOND_DEF_STEREO_COUNT>
0

> <PUBCHEM_BOND_UDEF_STEREO_COUNT>
0

> <PUBCHEM_ISOTOPIC_ATOM_COUNT>
0

> <PUBCHEM_COMPONENT_COUNT>
1

> <PUBCHEM_CACTVS_TAUTO_COUNT>
1

> <PUBCHEM_CONFORMER_ID>
0418DDE400000001

> <PUBCHEM_MMFF94_ENERGY>
19.1495

> <PUBCHEM_FEATURE_SELFOVERLAP>
25.372

> <PUBCHEM_SHAPE_FINGERPRINT>
10353120 184 18411978044642122325
10465860 71 18271257074498919548
11206711 2 18336254648941398877
11769659 78 15985093111756949207
12032990 46 18412262835492087859
13380536 305 18336824285958251273
14911166 2 18410006637563112023
14993402 34 18411698777341911871
15310529 11 16660638531861325539
15775835 57 17240493519583356422
161256 15 17831311862046785011
16945 1 18410569587474315779
20201158 50 18272653441571378830
20645476 183 17676490561642359802
20653085 51 16298685948385863006
21040471 1 18193829349622329435
21293036 1 18407759239853450311
23402539 116 18270951346089859958
23402655 69 18049415108419049605
23552423 10 18044654441069177171
23559900 14 18411418419763605786
2748010 2 18120648295646387171
29004967 10 16056592132465903586
5084963 1 17458894955778956123
7364860 26 17986947659833491425

> <PUBCHEM_SHAPE_MULTIPOLES>
215.6
4.97
1.55
0.91
1.91
0.4
0.19
-0.74
1.58
-0.07
-0.21
-0.48
-0.01
0.02

> <PUBCHEM_SHAPE_SELFOVERLAP>
424.3

> <PUBCHEM_SHAPE_VOLUME>
132.5

> <PUBCHEM_COORDINATE_TYPE>
2
5
10

$$$$
